VADER_model/cobalt/cobalt_transformers.glm
///////////////////////////////////////////////////////////////////////////////////////////////////////////////
//
// GridLAB-D service model configuration control file
// Copyright (C) 2016, SLAC National Accelerator Laboratory
// Author: Alyona Ivanova
//
/////////////////////////////////////////////////////////////////////////////



object meter {
	name source_03716;
	bustype SWING;
	phases ABC;
	nominal_voltage 6928.41 V;
	voltage_A 7199.77+0.0d V;
	voltage_B 7199.77-120.0d V;
	voltage_C 7199.77+120.0d V;
	object recorder {
		file cobalt_scada.csv;
		//table source_17916;
		//interval 3600;
		property measured_real_energy,measured_reactive_energy;
	};
}
object node {
	name node_03716;
	phases ABC;
	nominal_voltage 6928.41 V;
}


object capacitor{
	name capacitor_4472861E;
	parent node_ND46739360_03716;
	phases ABC;
	control VOLT;
	capacitor_A 0.000000 kVAr ;
	capacitor_B 0.000000 kVAr ;
	capacitor_C 400.000000 kVAr ;
	switchA CLOSED;
	switchB CLOSED;
	switchC CLOSED;
	pt_phase ABC;
	voltage_set_high 7.32 kV;
	voltage_set_low 7.08 kV;
	time_delay 60;
	dwell_time 120;
	nominal_voltage 6928.41 V;
}
object capacitor{
	name capacitor_1589929E;
	parent node_ND94548145_03716;
	phases ABC;
	control MANUAL;
	capacitor_A 0.000000 kVAr ;
	capacitor_B 0.000000 kVAr ;
	capacitor_C 400.000000 kVAr ;
	switchA CLOSED;
	switchB CLOSED;
	switchC CLOSED;
	pt_phase ABC;
	voltage_set_high 7621.251 kV;
	voltage_set_low 6235.569 kV;
	time_delay 60;
	dwell_time 120;
	nominal_voltage 6928.41 V;
}
object capacitor{
	name capacitor_P5207109;
	parent node_BS0932-L_03716;
	phases ABC;
	control VOLT;
	capacitor_A 600.000000 kVAr ;
	capacitor_B 600.000000 kVAr ;
	capacitor_C 600.000000 kVAr ;
	switchA CLOSED;
	switchB CLOSED;
	switchC CLOSED;
	pt_phase ABC;
	voltage_set_high 7.32 kV;
	voltage_set_low 7.08 kV;
	time_delay 60;
	dwell_time 120;
	nominal_voltage 6928.41 V;
}


object transformer{
name TX_B5075890_A;
groupid TX_50_A;
configuration TX_config_B5075890_A;
from node_B5075890_F_03716;
to load_1_A;
phases AS;
nominal_voltage 6928.41 V;
}
object transformer_configuration {
name TX_config_B5075890_A;
connect_type SINGLE_PHASE_CENTER_TAPPED;
primary_voltage 6928.41 V;
secondary_voltage 120 V;
power_rating 50 kVA;
powerA_rating 50 kVA;
impedance 0.0005+0.0095j;
}

object transformer{
name TX_4504161E_A;
groupid TX_25_A;
configuration TX_config_4504161E_A;
from node_4504161E_03716;
to load_2_A;
phases AS;
nominal_voltage 6928.41 V;
}
object transformer_configuration {
name TX_config_4504161E_A;
connect_type SINGLE_PHASE_CENTER_TAPPED;
primary_voltage 6928.41 V;
secondary_voltage 120 V;
power_rating 25 kVA;
powerA_rating 25 kVA;
impedance 0.0005+0.0095j;
}


object transformer{
name TX_763321E_A;
groupid TX_37_5_A;
configuration TX_config_763321E_A;
from node_763321E_03716;
to load_3_A;
phases AS;
nominal_voltage 6928.41 V;
}
object transformer_configuration {
name TX_config_763321E_A;
connect_type SINGLE_PHASE_CENTER_TAPPED;
primary_voltage 6928.41 V;
secondary_voltage 120 V;
power_rating 37.5 kVA;
powerA_rating 37.5 kVA;
impedance 0.0005+0.0095j;
}


object transformer{
name TX_1136202E_A;
groupid TX_167_A;
configuration TX_config_1136202E_A;
from node_1136202E_03716;
to load_4_A;
phases AS;
nominal_voltage 6928.41 V;
}
object transformer_configuration {
name TX_config_1136202E_A;
connect_type SINGLE_PHASE_CENTER_TAPPED;
primary_voltage 6928.41 V;
secondary_voltage 120 V;
power_rating 167 kVA;
powerA_rating 167 kVA;
impedance 0.00275+0.05225j;
}

object transformer{
name TX_1136202E_B;
groupid TX_167_B;
configuration TX_config_1136202E_B;
from node_1136202E_03716;
to load_5_B;
phases BS;
nominal_voltage 6928.41 V;
}
object transformer_configuration {
name TX_config_1136202E_B;
connect_type SINGLE_PHASE_CENTER_TAPPED;
primary_voltage 6928.41 V;
secondary_voltage 120 V;
power_rating 167 kVA;
powerB_rating 167 kVA;
impedance 0.00275+0.05225j;
}

object transformer{
name TX_1136202E_C;
groupid TX_167_C;
configuration TX_config_1136202E_C;
from node_1136202E_03716;
to load_6_C;
phases CS;
nominal_voltage 6928.41 V;
}
object transformer_configuration {
name TX_config_1136202E_C;
connect_type SINGLE_PHASE_CENTER_TAPPED;
primary_voltage 6928.41 V;
secondary_voltage 120 V;
power_rating 167 kVA;
powerC_rating 167 kVA;
impedance 0.00275+0.05225j;
}


object transformer{
name TX_4704578E_A;
groupid TX_37_5_A;
configuration TX_config_4704578E_A;
from node_4704578E_03716;
to load_7_A;
phases AS;
nominal_voltage 6928.41 V;
}
object transformer_configuration {
name TX_config_4704578E_A;
connect_type SINGLE_PHASE_CENTER_TAPPED;
primary_voltage 6928.41 V;
secondary_voltage 120 V;
power_rating 37.5 kVA;
powerA_rating 37.5 kVA;
impedance 0.0005+0.0095j;
}


object transformer{
name TX_1469089E_A;
groupid TX_25_A;
configuration TX_config_1469089E_A;
from node_1469089E_03716;
to load_8_A;
phases AS;
nominal_voltage 6928.41 V;
}
object transformer_configuration {
name TX_config_1469089E_A;
connect_type SINGLE_PHASE_CENTER_TAPPED;
primary_voltage 6928.41 V;
secondary_voltage 120 V;
power_rating 25 kVA;
powerA_rating 25 kVA;
impedance 0.0005+0.0095j;
}


object transformer{
name TX_P5072858_A;
groupid TX_50_A;
configuration TX_config_P5072858_A;
from node_P5072858-1_T_03716;
to load_9_A;
phases AS;
nominal_voltage 6928.41 V;
}
object transformer_configuration {
name TX_config_P5072858_A;
connect_type SINGLE_PHASE_CENTER_TAPPED;
primary_voltage 6928.41 V;
secondary_voltage 120 V;
power_rating 50 kVA;
powerA_rating 50 kVA;
impedance 0.00055+0.01045j;
}

object transformer{
name TX_P5072858_B;
groupid TX_50_B;
configuration TX_config_P5072858_B;
from node_P5072858-1_T_03716;
to load_10_B;
phases BS;
nominal_voltage 6928.41 V;
}
object transformer_configuration {
name TX_config_P5072858_B;
connect_type SINGLE_PHASE_CENTER_TAPPED;
primary_voltage 6928.41 V;
secondary_voltage 120 V;
power_rating 50 kVA;
powerB_rating 50 kVA;
impedance 0.00055+0.01045j;
}

object transformer{
name TX_P5072858_C;
groupid TX_50_C;
configuration TX_config_P5072858_C;
from node_P5072858-1_T_03716;
to load_11_C;
phases CS;
nominal_voltage 6928.41 V;
}
object transformer_configuration {
name TX_config_P5072858_C;
connect_type SINGLE_PHASE_CENTER_TAPPED;
primary_voltage 6928.41 V;
secondary_voltage 120 V;
power_rating 50 kVA;
powerC_rating 50 kVA;
impedance 0.00055+0.01045j;
}


object transformer{
name TX_P5074272_A;
groupid TX_25_A;
configuration TX_config_P5074272_A;
from node_P5074272-B_T_03716;
to load_12_A;
phases AS;
nominal_voltage 6928.41 V;
}
object transformer_configuration {
name TX_config_P5074272_A;
connect_type SINGLE_PHASE_CENTER_TAPPED;
primary_voltage 6928.41 V;
secondary_voltage 120 V;
power_rating 25 kVA;
powerA_rating 25 kVA;
impedance 0.0005+0.0095j;
}


object transformer{
name TX_1135178E_A;
groupid TX_25_A;
configuration TX_config_1135178E_A;
from node_1135178E_03716;
to load_13_A;
phases AS;
nominal_voltage 6928.41 V;
}
object transformer_configuration {
name TX_config_1135178E_A;
connect_type SINGLE_PHASE_CENTER_TAPPED;
primary_voltage 6928.41 V;
secondary_voltage 120 V;
power_rating 25 kVA;
powerA_rating 25 kVA;
impedance 0.0005+0.0095j;
}


object transformer{
name TX_1469084E_A;
groupid TX_25_A;
configuration TX_config_1469084E_A;
from node_1469084E_03716;
to load_14_A;
phases AS;
nominal_voltage 6928.41 V;
}
object transformer_configuration {
name TX_config_1469084E_A;
connect_type SINGLE_PHASE_CENTER_TAPPED;
primary_voltage 6928.41 V;
secondary_voltage 120 V;
power_rating 25 kVA;
powerA_rating 25 kVA;
impedance 0.0005+0.0095j;
}


object transformer{
name TX_B5076189_A;
groupid TX_75_A;
configuration TX_config_B5076189_A;
from node_B5076189_F_03716;
to load_15_A;
phases AS;
nominal_voltage 6928.41 V;
}
object transformer_configuration {
name TX_config_B5076189_A;
connect_type SINGLE_PHASE_CENTER_TAPPED;
primary_voltage 6928.41 V;
secondary_voltage 120 V;
power_rating 75 kVA;
powerA_rating 75 kVA;
impedance 0.00055+0.01045j;
}


object transformer{
name TX_B5076621_A;
groupid TX_75_A;
configuration TX_config_B5076621_A;
from node_B5076621_F_03716;
to load_16_A;
phases AS;
nominal_voltage 6928.41 V;
}
object transformer_configuration {
name TX_config_B5076621_A;
connect_type SINGLE_PHASE_CENTER_TAPPED;
primary_voltage 6928.41 V;
secondary_voltage 120 V;
power_rating 75 kVA;
powerA_rating 75 kVA;
impedance 0.00055+0.01045j;
}


object transformer{
name TX_B5076319_A;
groupid TX_50_A;
configuration TX_config_B5076319_A;
from node_B5076319_F_03716;
to load_17_A;
phases AS;
nominal_voltage 6928.41 V;
}
object transformer_configuration {
name TX_config_B5076319_A;
connect_type SINGLE_PHASE_CENTER_TAPPED;
primary_voltage 6928.41 V;
secondary_voltage 120 V;
power_rating 50 kVA;
powerA_rating 50 kVA;
impedance 0.0005+0.0095j;
}


object transformer{
name TX_1063707E_A;
groupid TX_15_A;
configuration TX_config_1063707E_A;
from node_1063707E_03716;
to load_18_A;
phases AS;
nominal_voltage 6928.41 V;
}
object transformer_configuration {
name TX_config_1063707E_A;
connect_type SINGLE_PHASE_CENTER_TAPPED;
primary_voltage 6928.41 V;
secondary_voltage 120 V;
power_rating 15 kVA;
powerA_rating 15 kVA;
impedance 0.0005+0.0095j;
}


object transformer{
name TX_763347E_A;
groupid TX_15_A;
configuration TX_config_763347E_A;
from node_763347E_03716;
to load_19_A;
phases AS;
nominal_voltage 6928.41 V;
}
object transformer_configuration {
name TX_config_763347E_A;
connect_type SINGLE_PHASE_CENTER_TAPPED;
primary_voltage 6928.41 V;
secondary_voltage 120 V;
power_rating 15 kVA;
powerA_rating 15 kVA;
impedance 0.0005+0.0095j;
}


object transformer{
name TX_B5072426_A;
groupid TX_75_A;
configuration TX_config_B5072426_A;
from node_B5072426_F_03716;
to load_20_A;
phases AS;
nominal_voltage 6928.41 V;
}
object transformer_configuration {
name TX_config_B5072426_A;
connect_type SINGLE_PHASE_CENTER_TAPPED;
primary_voltage 6928.41 V;
secondary_voltage 120 V;
power_rating 75 kVA;
powerA_rating 75 kVA;
impedance 0.00055+0.01045j;
}


object transformer{
name TX_1335103E_A;
groupid TX_8_333_A;
configuration TX_config_1335103E_A;
from node_1335103E_03716;
to load_21_A;
phases AS;
nominal_voltage 6928.41 V;
}
object transformer_configuration {
name TX_config_1335103E_A;
connect_type SINGLE_PHASE_CENTER_TAPPED;
primary_voltage 6928.41 V;
secondary_voltage 120 V;
power_rating 8.333 kVA;
powerA_rating 8.333 kVA;
impedance 0.00055+0.01045j;
}

object transformer{
name TX_1335103E_B;
groupid TX_8_333_B;
configuration TX_config_1335103E_B;
from node_1335103E_03716;
to load_22_B;
phases BS;
nominal_voltage 6928.41 V;
}
object transformer_configuration {
name TX_config_1335103E_B;
connect_type SINGLE_PHASE_CENTER_TAPPED;
primary_voltage 6928.41 V;
secondary_voltage 120 V;
power_rating 8.333 kVA;
powerB_rating 8.333 kVA;
impedance 0.00055+0.01045j;
}

object transformer{
name TX_1335103E_C;
groupid TX_8_333_C;
configuration TX_config_1335103E_C;
from node_1335103E_03716;
to load_23_C;
phases CS;
nominal_voltage 6928.41 V;
}
object transformer_configuration {
name TX_config_1335103E_C;
connect_type SINGLE_PHASE_CENTER_TAPPED;
primary_voltage 6928.41 V;
secondary_voltage 120 V;
power_rating 8.333 kVA;
powerC_rating 8.333 kVA;
impedance 0.00055+0.01045j;
}


object transformer{
name TX_S5074936_A;
groupid TX_25_A;
configuration TX_config_S5074936_A;
from node_S5074936_F_03716;
to load_24_A;
phases AS;
nominal_voltage 6928.41 V;
}
object transformer_configuration {
name TX_config_S5074936_A;
connect_type SINGLE_PHASE_CENTER_TAPPED;
primary_voltage 6928.41 V;
secondary_voltage 120 V;
power_rating 25 kVA;
powerA_rating 25 kVA;
impedance 0.0005+0.0095j;
}


object transformer{
name TX_1286120E_A;
groupid TX_5_A;
configuration TX_config_1286120E_A;
from node_1286120E_03716;
to load_25_A;
phases AS;
nominal_voltage 6928.41 V;
}
object transformer_configuration {
name TX_config_1286120E_A;
connect_type SINGLE_PHASE_CENTER_TAPPED;
primary_voltage 6928.41 V;
secondary_voltage 120 V;
power_rating 5 kVA;
powerA_rating 5 kVA;
impedance 0.00055+0.01045j;
}

object transformer{
name TX_1286120E_B;
groupid TX_5_B;
configuration TX_config_1286120E_B;
from node_1286120E_03716;
to load_26_B;
phases BS;
nominal_voltage 6928.41 V;
}
object transformer_configuration {
name TX_config_1286120E_B;
connect_type SINGLE_PHASE_CENTER_TAPPED;
primary_voltage 6928.41 V;
secondary_voltage 120 V;
power_rating 5 kVA;
powerB_rating 5 kVA;
impedance 0.00055+0.01045j;
}

object transformer{
name TX_1286120E_C;
groupid TX_5_C;
configuration TX_config_1286120E_C;
from node_1286120E_03716;
to load_27_C;
phases CS;
nominal_voltage 6928.41 V;
}
object transformer_configuration {
name TX_config_1286120E_C;
connect_type SINGLE_PHASE_CENTER_TAPPED;
primary_voltage 6928.41 V;
secondary_voltage 120 V;
power_rating 5 kVA;
powerC_rating 5 kVA;
impedance 0.00055+0.01045j;
}


object transformer{
name TX_B5076272_A;
groupid TX_50_A;
configuration TX_config_B5076272_A;
from node_B5076272_F_03716;
to load_28_A;
phases AS;
nominal_voltage 6928.41 V;
}
object transformer_configuration {
name TX_config_B5076272_A;
connect_type SINGLE_PHASE_CENTER_TAPPED;
primary_voltage 6928.41 V;
secondary_voltage 120 V;
power_rating 50 kVA;
powerA_rating 50 kVA;
impedance 0.0005+0.0095j;
}


object transformer{
name TX_1681006E_A;
groupid TX_25_A;
configuration TX_config_1681006E_A;
from node_1681006E_03716;
to load_29_A;
phases AS;
nominal_voltage 6928.41 V;
}
object transformer_configuration {
name TX_config_1681006E_A;
connect_type SINGLE_PHASE_CENTER_TAPPED;
primary_voltage 6928.41 V;
secondary_voltage 120 V;
power_rating 25 kVA;
powerA_rating 25 kVA;
impedance 0.0005+0.0095j;
}


object transformer{
name TX_1335106E_A;
groupid TX_3_333_A;
configuration TX_config_1335106E_A;
from node_1335106E_03716;
to load_30_A;
phases AS;
nominal_voltage 6928.41 V;
}
object transformer_configuration {
name TX_config_1335106E_A;
connect_type SINGLE_PHASE_CENTER_TAPPED;
primary_voltage 6928.41 V;
secondary_voltage 120 V;
power_rating 3.333 kVA;
powerA_rating 3.333 kVA;
impedance 0.00055+0.01045j;
}

object transformer{
name TX_1335106E_B;
groupid TX_3_333_B;
configuration TX_config_1335106E_B;
from node_1335106E_03716;
to load_31_B;
phases BS;
nominal_voltage 6928.41 V;
}
object transformer_configuration {
name TX_config_1335106E_B;
connect_type SINGLE_PHASE_CENTER_TAPPED;
primary_voltage 6928.41 V;
secondary_voltage 120 V;
power_rating 3.333 kVA;
powerB_rating 3.333 kVA;
impedance 0.00055+0.01045j;
}

object transformer{
name TX_1335106E_C;
groupid TX_3_333_C;
configuration TX_config_1335106E_C;
from node_1335106E_03716;
to load_32_C;
phases CS;
nominal_voltage 6928.41 V;
}
object transformer_configuration {
name TX_config_1335106E_C;
connect_type SINGLE_PHASE_CENTER_TAPPED;
primary_voltage 6928.41 V;
secondary_voltage 120 V;
power_rating 3.333 kVA;
powerC_rating 3.333 kVA;
impedance 0.00055+0.01045j;
}


object transformer{
name TX_1642384E_A;
groupid TX_25_A;
configuration TX_config_1642384E_A;
from node_1642384E_03716;
to load_33_A;
phases AS;
nominal_voltage 6928.41 V;
}
object transformer_configuration {
name TX_config_1642384E_A;
connect_type SINGLE_PHASE_CENTER_TAPPED;
primary_voltage 6928.41 V;
secondary_voltage 120 V;
power_rating 25 kVA;
powerA_rating 25 kVA;
impedance 0.0005+0.0095j;
}


object transformer{
name TX_1063729E_A;
groupid TX_37_5_A;
configuration TX_config_1063729E_A;
from node_1063729E_03716;
to load_34_A;
phases AS;
nominal_voltage 6928.41 V;
}
object transformer_configuration {
name TX_config_1063729E_A;
connect_type SINGLE_PHASE_CENTER_TAPPED;
primary_voltage 6928.41 V;
secondary_voltage 120 V;
power_rating 37.5 kVA;
powerA_rating 37.5 kVA;
impedance 0.0005+0.0095j;
}


object transformer{
name TX_B5075368_A;
groupid TX_50_A;
configuration TX_config_B5075368_A;
from node_B5075368_F_03716;
to load_35_A;
phases AS;
nominal_voltage 6928.41 V;
}
object transformer_configuration {
name TX_config_B5075368_A;
connect_type SINGLE_PHASE_CENTER_TAPPED;
primary_voltage 6928.41 V;
secondary_voltage 120 V;
power_rating 50 kVA;
powerA_rating 50 kVA;
impedance 0.0005+0.0095j;
}


object transformer{
name TX_1717922E_A;
groupid TX_33_333_A;
configuration TX_config_1717922E_A;
from node_1717922E_03716;
to load_36_A;
phases AS;
nominal_voltage 6928.41 V;
}
object transformer_configuration {
name TX_config_1717922E_A;
connect_type SINGLE_PHASE_CENTER_TAPPED;
primary_voltage 6928.41 V;
secondary_voltage 120 V;
power_rating 33.333 kVA;
powerA_rating 33.333 kVA;
impedance 0.00055+0.01045j;
}

object transformer{
name TX_1717922E_B;
groupid TX_33_333_B;
configuration TX_config_1717922E_B;
from node_1717922E_03716;
to load_37_B;
phases BS;
nominal_voltage 6928.41 V;
}
object transformer_configuration {
name TX_config_1717922E_B;
connect_type SINGLE_PHASE_CENTER_TAPPED;
primary_voltage 6928.41 V;
secondary_voltage 120 V;
power_rating 33.333 kVA;
powerB_rating 33.333 kVA;
impedance 0.00055+0.01045j;
}

object transformer{
name TX_1717922E_C;
groupid TX_33_333_C;
configuration TX_config_1717922E_C;
from node_1717922E_03716;
to load_38_C;
phases CS;
nominal_voltage 6928.41 V;
}
object transformer_configuration {
name TX_config_1717922E_C;
connect_type SINGLE_PHASE_CENTER_TAPPED;
primary_voltage 6928.41 V;
secondary_voltage 120 V;
power_rating 33.333 kVA;
powerC_rating 33.333 kVA;
impedance 0.00055+0.01045j;
}


object transformer{
name TX_687836H_A;
groupid TX_15_A;
configuration TX_config_687836H_A;
from node_687836H_03716;
to load_39_A;
phases AS;
nominal_voltage 6928.41 V;
}
object transformer_configuration {
name TX_config_687836H_A;
connect_type SINGLE_PHASE_CENTER_TAPPED;
primary_voltage 6928.41 V;
secondary_voltage 120 V;
power_rating 15 kVA;
powerA_rating 15 kVA;
impedance 0.0005+0.0095j;
}


object transformer{
name TX_1673799E_A;
groupid TX_25_A;
configuration TX_config_1673799E_A;
from node_1673799E_03716;
to load_40_A;
phases AS;
nominal_voltage 6928.41 V;
}
object transformer_configuration {
name TX_config_1673799E_A;
connect_type SINGLE_PHASE_CENTER_TAPPED;
primary_voltage 6928.41 V;
secondary_voltage 120 V;
power_rating 25 kVA;
powerA_rating 25 kVA;
impedance 0.0005+0.0095j;
}


object transformer{
name TX_B5076265_A;
groupid TX_50_A;
configuration TX_config_B5076265_A;
from node_B5076265_F_03716;
to load_41_A;
phases AS;
nominal_voltage 6928.41 V;
}
object transformer_configuration {
name TX_config_B5076265_A;
connect_type SINGLE_PHASE_CENTER_TAPPED;
primary_voltage 6928.41 V;
secondary_voltage 120 V;
power_rating 50 kVA;
powerA_rating 50 kVA;
impedance 0.0005+0.0095j;
}


object transformer{
name TX_B5075639_A;
groupid TX_50_A;
configuration TX_config_B5075639_A;
from node_B5075639_F_03716;
to load_42_A;
phases AS;
nominal_voltage 6928.41 V;
}
object transformer_configuration {
name TX_config_B5075639_A;
connect_type SINGLE_PHASE_CENTER_TAPPED;
primary_voltage 6928.41 V;
secondary_voltage 120 V;
power_rating 50 kVA;
powerA_rating 50 kVA;
impedance 0.0005+0.0095j;
}


object transformer{
name TX_1575635E_A;
groupid TX_3_333_A;
configuration TX_config_1575635E_A;
from node_1575635E_03716;
to load_43_A;
phases AS;
nominal_voltage 6928.41 V;
}
object transformer_configuration {
name TX_config_1575635E_A;
connect_type SINGLE_PHASE_CENTER_TAPPED;
primary_voltage 6928.41 V;
secondary_voltage 120 V;
power_rating 3.333 kVA;
powerA_rating 3.333 kVA;
impedance 0.00055+0.01045j;
}

object transformer{
name TX_1575635E_B;
groupid TX_3_333_B;
configuration TX_config_1575635E_B;
from node_1575635E_03716;
to load_44_B;
phases BS;
nominal_voltage 6928.41 V;
}
object transformer_configuration {
name TX_config_1575635E_B;
connect_type SINGLE_PHASE_CENTER_TAPPED;
primary_voltage 6928.41 V;
secondary_voltage 120 V;
power_rating 3.333 kVA;
powerB_rating 3.333 kVA;
impedance 0.00055+0.01045j;
}

object transformer{
name TX_1575635E_C;
groupid TX_3_333_C;
configuration TX_config_1575635E_C;
from node_1575635E_03716;
to load_45_C;
phases CS;
nominal_voltage 6928.41 V;
}
object transformer_configuration {
name TX_config_1575635E_C;
connect_type SINGLE_PHASE_CENTER_TAPPED;
primary_voltage 6928.41 V;
secondary_voltage 120 V;
power_rating 3.333 kVA;
powerC_rating 3.333 kVA;
impedance 0.00055+0.01045j;
}


object transformer{
name TX_1252673E_A;
groupid TX_25_A;
configuration TX_config_1252673E_A;
from node_1252673E_03716;
to load_46_A;
phases AS;
nominal_voltage 6928.41 V;
}
object transformer_configuration {
name TX_config_1252673E_A;
connect_type SINGLE_PHASE_CENTER_TAPPED;
primary_voltage 6928.41 V;
secondary_voltage 120 V;
power_rating 25 kVA;
powerA_rating 25 kVA;
impedance 0.0005+0.0095j;
}


object transformer{
name TX_688864H_A;
groupid TX_37_5_A;
configuration TX_config_688864H_A;
from node_688864H_03716;
to load_47_A;
phases AS;
nominal_voltage 6928.41 V;
}
object transformer_configuration {
name TX_config_688864H_A;
connect_type SINGLE_PHASE_CENTER_TAPPED;
primary_voltage 6928.41 V;
secondary_voltage 120 V;
power_rating 37.5 kVA;
powerA_rating 37.5 kVA;
impedance 0.0005+0.0095j;
}


object transformer{
name TX_1575613E_A;
groupid TX_37_5_A;
configuration TX_config_1575613E_A;
from node_1575613E_03716;
to load_48_A;
phases AS;
nominal_voltage 6928.41 V;
}
object transformer_configuration {
name TX_config_1575613E_A;
connect_type SINGLE_PHASE_CENTER_TAPPED;
primary_voltage 6928.41 V;
secondary_voltage 120 V;
power_rating 37.5 kVA;
powerA_rating 37.5 kVA;
impedance 0.0005+0.0095j;
}


object transformer{
name TX_1642109E_A;
groupid TX_25_A;
configuration TX_config_1642109E_A;
from node_1642109E_03716;
to load_49_A;
phases AS;
nominal_voltage 6928.41 V;
}
object transformer_configuration {
name TX_config_1642109E_A;
connect_type SINGLE_PHASE_CENTER_TAPPED;
primary_voltage 6928.41 V;
secondary_voltage 120 V;
power_rating 25 kVA;
powerA_rating 25 kVA;
impedance 0.0005+0.0095j;
}


object transformer{
name TX_2243141E_A;
groupid TX_5_A;
configuration TX_config_2243141E_A;
from node_2243141E_03716;
to load_50_A;
phases AS;
nominal_voltage 6928.41 V;
}
object transformer_configuration {
name TX_config_2243141E_A;
connect_type SINGLE_PHASE_CENTER_TAPPED;
primary_voltage 6928.41 V;
secondary_voltage 120 V;
power_rating 5 kVA;
powerA_rating 5 kVA;
impedance 0.00055+0.01045j;
}

object transformer{
name TX_2243141E_B;
groupid TX_5_B;
configuration TX_config_2243141E_B;
from node_2243141E_03716;
to load_51_B;
phases BS;
nominal_voltage 6928.41 V;
}
object transformer_configuration {
name TX_config_2243141E_B;
connect_type SINGLE_PHASE_CENTER_TAPPED;
primary_voltage 6928.41 V;
secondary_voltage 120 V;
power_rating 5 kVA;
powerB_rating 5 kVA;
impedance 0.00055+0.01045j;
}

object transformer{
name TX_2243141E_C;
groupid TX_5_C;
configuration TX_config_2243141E_C;
from node_2243141E_03716;
to load_52_C;
phases CS;
nominal_voltage 6928.41 V;
}
object transformer_configuration {
name TX_config_2243141E_C;
connect_type SINGLE_PHASE_CENTER_TAPPED;
primary_voltage 6928.41 V;
secondary_voltage 120 V;
power_rating 5 kVA;
powerC_rating 5 kVA;
impedance 0.00055+0.01045j;
}


object transformer{
name TX_1642390E_A;
groupid TX_25_A;
configuration TX_config_1642390E_A;
from node_1642390E_03716;
to load_53_A;
phases AS;
nominal_voltage 6928.41 V;
}
object transformer_configuration {
name TX_config_1642390E_A;
connect_type SINGLE_PHASE_CENTER_TAPPED;
primary_voltage 6928.41 V;
secondary_voltage 120 V;
power_rating 25 kVA;
powerA_rating 25 kVA;
impedance 0.0005+0.0095j;
}


object transformer{
name TX_688856H_A;
groupid TX_25_A;
configuration TX_config_688856H_A;
from node_688856H_03716;
to load_54_A;
phases AS;
nominal_voltage 6928.41 V;
}
object transformer_configuration {
name TX_config_688856H_A;
connect_type SINGLE_PHASE_CENTER_TAPPED;
primary_voltage 6928.41 V;
secondary_voltage 120 V;
power_rating 25 kVA;
powerA_rating 25 kVA;
impedance 0.0005+0.0095j;
}


object transformer{
name TX_1575639E_A;
groupid TX_3_333_A;
configuration TX_config_1575639E_A;
from node_1575639E_03716;
to load_55_A;
phases AS;
nominal_voltage 6928.41 V;
}
object transformer_configuration {
name TX_config_1575639E_A;
connect_type SINGLE_PHASE_CENTER_TAPPED;
primary_voltage 6928.41 V;
secondary_voltage 120 V;
power_rating 3.333 kVA;
powerA_rating 3.333 kVA;
impedance 0.00055+0.01045j;
}

object transformer{
name TX_1575639E_B;
groupid TX_3_333_B;
configuration TX_config_1575639E_B;
from node_1575639E_03716;
to load_56_B;
phases BS;
nominal_voltage 6928.41 V;
}
object transformer_configuration {
name TX_config_1575639E_B;
connect_type SINGLE_PHASE_CENTER_TAPPED;
primary_voltage 6928.41 V;
secondary_voltage 120 V;
power_rating 3.333 kVA;
powerB_rating 3.333 kVA;
impedance 0.00055+0.01045j;
}

object transformer{
name TX_1575639E_C;
groupid TX_3_333_C;
configuration TX_config_1575639E_C;
from node_1575639E_03716;
to load_57_C;
phases CS;
nominal_voltage 6928.41 V;
}
object transformer_configuration {
name TX_config_1575639E_C;
connect_type SINGLE_PHASE_CENTER_TAPPED;
primary_voltage 6928.41 V;
secondary_voltage 120 V;
power_rating 3.333 kVA;
powerC_rating 3.333 kVA;
impedance 0.00055+0.01045j;
}


object transformer{
name TX_738140H_A;
groupid TX_15_A;
configuration TX_config_738140H_A;
from node_738140H_03716;
to load_58_A;
phases AS;
nominal_voltage 6928.41 V;
}
object transformer_configuration {
name TX_config_738140H_A;
connect_type SINGLE_PHASE_CENTER_TAPPED;
primary_voltage 6928.41 V;
secondary_voltage 120 V;
power_rating 15 kVA;
powerA_rating 15 kVA;
impedance 0.0005+0.0095j;
}


object transformer{
name TX_1641743E_A;
groupid TX_15_A;
configuration TX_config_1641743E_A;
from node_1641743E_03716;
to load_59_A;
phases AS;
nominal_voltage 6928.41 V;
}
object transformer_configuration {
name TX_config_1641743E_A;
connect_type SINGLE_PHASE_CENTER_TAPPED;
primary_voltage 6928.41 V;
secondary_voltage 120 V;
power_rating 15 kVA;
powerA_rating 15 kVA;
impedance 0.0005+0.0095j;
}


object transformer{
name TX_1673796E_A;
groupid TX_50_A;
configuration TX_config_1673796E_A;
from node_1673796E_03716;
to load_60_A;
phases AS;
nominal_voltage 6928.41 V;
}
object transformer_configuration {
name TX_config_1673796E_A;
connect_type SINGLE_PHASE_CENTER_TAPPED;
primary_voltage 6928.41 V;
secondary_voltage 120 V;
power_rating 50 kVA;
powerA_rating 50 kVA;
impedance 0.0005+0.0095j;
}


object transformer{
name TX_P5363732_A;
groupid TX_166_667_A;
configuration TX_config_P5363732_A;
from node_P5363732-1_T_03716;
to load_61_A;
phases AS;
nominal_voltage 6928.41 V;
}
object transformer_configuration {
name TX_config_P5363732_A;
connect_type SINGLE_PHASE_CENTER_TAPPED;
primary_voltage 6928.41 V;
secondary_voltage 120 V;
power_rating 166.667 kVA;
powerA_rating 166.667 kVA;
impedance 0.0007+0.0133j;
}

object transformer{
name TX_P5363732_B;
groupid TX_166_667_B;
configuration TX_config_P5363732_B;
from node_P5363732-1_T_03716;
to load_62_B;
phases BS;
nominal_voltage 6928.41 V;
}
object transformer_configuration {
name TX_config_P5363732_B;
connect_type SINGLE_PHASE_CENTER_TAPPED;
primary_voltage 6928.41 V;
secondary_voltage 120 V;
power_rating 166.667 kVA;
powerB_rating 166.667 kVA;
impedance 0.0007+0.0133j;
}

object transformer{
name TX_P5363732_C;
groupid TX_166_667_C;
configuration TX_config_P5363732_C;
from node_P5363732-1_T_03716;
to load_63_C;
phases CS;
nominal_voltage 6928.41 V;
}
object transformer_configuration {
name TX_config_P5363732_C;
connect_type SINGLE_PHASE_CENTER_TAPPED;
primary_voltage 6928.41 V;
secondary_voltage 120 V;
power_rating 166.667 kVA;
powerC_rating 166.667 kVA;
impedance 0.0007+0.0133j;
}


object transformer{
name TX_1405381E_A;
groupid TX_8_333_A;
configuration TX_config_1405381E_A;
from node_1405381E_03716;
to load_64_A;
phases AS;
nominal_voltage 6928.41 V;
}
object transformer_configuration {
name TX_config_1405381E_A;
connect_type SINGLE_PHASE_CENTER_TAPPED;
primary_voltage 6928.41 V;
secondary_voltage 120 V;
power_rating 8.333 kVA;
powerA_rating 8.333 kVA;
impedance 0.00055+0.01045j;
}

object transformer{
name TX_1405381E_B;
groupid TX_8_333_B;
configuration TX_config_1405381E_B;
from node_1405381E_03716;
to load_65_B;
phases BS;
nominal_voltage 6928.41 V;
}
object transformer_configuration {
name TX_config_1405381E_B;
connect_type SINGLE_PHASE_CENTER_TAPPED;
primary_voltage 6928.41 V;
secondary_voltage 120 V;
power_rating 8.333 kVA;
powerB_rating 8.333 kVA;
impedance 0.00055+0.01045j;
}

object transformer{
name TX_1405381E_C;
groupid TX_8_333_C;
configuration TX_config_1405381E_C;
from node_1405381E_03716;
to load_66_C;
phases CS;
nominal_voltage 6928.41 V;
}
object transformer_configuration {
name TX_config_1405381E_C;
connect_type SINGLE_PHASE_CENTER_TAPPED;
primary_voltage 6928.41 V;
secondary_voltage 120 V;
power_rating 8.333 kVA;
powerC_rating 8.333 kVA;
impedance 0.00055+0.01045j;
}


object transformer{
name TX_B5076522_A;
groupid TX_50_A;
configuration TX_config_B5076522_A;
from node_B5076522_F_03716;
to load_67_A;
phases AS;
nominal_voltage 6928.41 V;
}
object transformer_configuration {
name TX_config_B5076522_A;
connect_type SINGLE_PHASE_CENTER_TAPPED;
primary_voltage 6928.41 V;
secondary_voltage 120 V;
power_rating 50 kVA;
powerA_rating 50 kVA;
impedance 0.0005+0.0095j;
}


object transformer{
name TX_4636941E_A;
groupid TX_25_A;
configuration TX_config_4636941E_A;
from node_4636941E_03716;
to load_68_A;
phases AS;
nominal_voltage 6928.41 V;
}
object transformer_configuration {
name TX_config_4636941E_A;
connect_type SINGLE_PHASE_CENTER_TAPPED;
primary_voltage 6928.41 V;
secondary_voltage 120 V;
power_rating 25 kVA;
powerA_rating 25 kVA;
impedance 0.0005+0.0095j;
}


object transformer{
name TX_1589924E_A;
groupid TX_25_A;
configuration TX_config_1589924E_A;
from node_1589924E_03716;
to load_69_A;
phases AS;
nominal_voltage 6928.41 V;
}
object transformer_configuration {
name TX_config_1589924E_A;
connect_type SINGLE_PHASE_CENTER_TAPPED;
primary_voltage 6928.41 V;
secondary_voltage 120 V;
power_rating 25 kVA;
powerA_rating 25 kVA;
impedance 0.00055+0.01045j;
}

object transformer{
name TX_1589924E_B;
groupid TX_25_B;
configuration TX_config_1589924E_B;
from node_1589924E_03716;
to load_70_B;
phases BS;
nominal_voltage 6928.41 V;
}
object transformer_configuration {
name TX_config_1589924E_B;
connect_type SINGLE_PHASE_CENTER_TAPPED;
primary_voltage 6928.41 V;
secondary_voltage 120 V;
power_rating 25 kVA;
powerB_rating 25 kVA;
impedance 0.00055+0.01045j;
}

object transformer{
name TX_1589924E_C;
groupid TX_25_C;
configuration TX_config_1589924E_C;
from node_1589924E_03716;
to load_71_C;
phases CS;
nominal_voltage 6928.41 V;
}
object transformer_configuration {
name TX_config_1589924E_C;
connect_type SINGLE_PHASE_CENTER_TAPPED;
primary_voltage 6928.41 V;
secondary_voltage 120 V;
power_rating 25 kVA;
powerC_rating 25 kVA;
impedance 0.00055+0.01045j;
}


object transformer{
name TX_1063727E_A;
groupid TX_15_A;
configuration TX_config_1063727E_A;
from node_1063727E_03716;
to load_72_A;
phases AS;
nominal_voltage 6928.41 V;
}
object transformer_configuration {
name TX_config_1063727E_A;
connect_type SINGLE_PHASE_CENTER_TAPPED;
primary_voltage 6928.41 V;
secondary_voltage 120 V;
power_rating 15 kVA;
powerA_rating 15 kVA;
impedance 0.0005+0.0095j;
}


object transformer{
name TX_P5511923_A;
groupid TX_25_A;
configuration TX_config_P5511923_A;
from node_P5511923-1_T_03716;
to load_73_A;
phases AS;
nominal_voltage 6928.41 V;
}
object transformer_configuration {
name TX_config_P5511923_A;
connect_type SINGLE_PHASE_CENTER_TAPPED;
primary_voltage 6928.41 V;
secondary_voltage 120 V;
power_rating 25 kVA;
powerA_rating 25 kVA;
impedance 0.00055+0.01045j;
}

object transformer{
name TX_P5511923_B;
groupid TX_25_B;
configuration TX_config_P5511923_B;
from node_P5511923-1_T_03716;
to load_74_B;
phases BS;
nominal_voltage 6928.41 V;
}
object transformer_configuration {
name TX_config_P5511923_B;
connect_type SINGLE_PHASE_CENTER_TAPPED;
primary_voltage 6928.41 V;
secondary_voltage 120 V;
power_rating 25 kVA;
powerB_rating 25 kVA;
impedance 0.00055+0.01045j;
}

object transformer{
name TX_P5511923_C;
groupid TX_25_C;
configuration TX_config_P5511923_C;
from node_P5511923-1_T_03716;
to load_75_C;
phases CS;
nominal_voltage 6928.41 V;
}
object transformer_configuration {
name TX_config_P5511923_C;
connect_type SINGLE_PHASE_CENTER_TAPPED;
primary_voltage 6928.41 V;
secondary_voltage 120 V;
power_rating 25 kVA;
powerC_rating 25 kVA;
impedance 0.00055+0.01045j;
}


object transformer{
name TX_687827H_A;
groupid TX_15_A;
configuration TX_config_687827H_A;
from node_687827H_03716;
to load_76_A;
phases AS;
nominal_voltage 6928.41 V;
}
object transformer_configuration {
name TX_config_687827H_A;
connect_type SINGLE_PHASE_CENTER_TAPPED;
primary_voltage 6928.41 V;
secondary_voltage 120 V;
power_rating 15 kVA;
powerA_rating 15 kVA;
impedance 0.0005+0.0095j;
}


object transformer{
name TX_B5076507_A;
groupid TX_75_A;
configuration TX_config_B5076507_A;
from node_B5076507_F_03716;
to load_77_A;
phases AS;
nominal_voltage 6928.41 V;
}
object transformer_configuration {
name TX_config_B5076507_A;
connect_type SINGLE_PHASE_CENTER_TAPPED;
primary_voltage 6928.41 V;
secondary_voltage 120 V;
power_rating 75 kVA;
powerA_rating 75 kVA;
impedance 0.00055+0.01045j;
}


object transformer{
name TX_B5075469_A;
groupid TX_50_A;
configuration TX_config_B5075469_A;
from node_B5075469_F_03716;
to load_78_A;
phases AS;
nominal_voltage 6928.41 V;
}
object transformer_configuration {
name TX_config_B5075469_A;
connect_type SINGLE_PHASE_CENTER_TAPPED;
primary_voltage 6928.41 V;
secondary_voltage 120 V;
power_rating 50 kVA;
powerA_rating 50 kVA;
impedance 0.0005+0.0095j;
}


object transformer{
name TX_688868H_A;
groupid TX_15_A;
configuration TX_config_688868H_A;
from node_688868H_03716;
to load_79_A;
phases AS;
nominal_voltage 6928.41 V;
}
object transformer_configuration {
name TX_config_688868H_A;
connect_type SINGLE_PHASE_CENTER_TAPPED;
primary_voltage 6928.41 V;
secondary_voltage 120 V;
power_rating 15 kVA;
powerA_rating 15 kVA;
impedance 0.0005+0.0095j;
}


object transformer{
name TX_4504160E_A;
groupid TX_5_A;
configuration TX_config_4504160E_A;
from node_4504160E_03716;
to load_80_A;
phases AS;
nominal_voltage 6928.41 V;
}
object transformer_configuration {
name TX_config_4504160E_A;
connect_type SINGLE_PHASE_CENTER_TAPPED;
primary_voltage 6928.41 V;
secondary_voltage 120 V;
power_rating 5 kVA;
powerA_rating 5 kVA;
impedance 0.00055+0.01045j;
}

object transformer{
name TX_4504160E_B;
groupid TX_5_B;
configuration TX_config_4504160E_B;
from node_4504160E_03716;
to load_81_B;
phases BS;
nominal_voltage 6928.41 V;
}
object transformer_configuration {
name TX_config_4504160E_B;
connect_type SINGLE_PHASE_CENTER_TAPPED;
primary_voltage 6928.41 V;
secondary_voltage 120 V;
power_rating 5 kVA;
powerB_rating 5 kVA;
impedance 0.00055+0.01045j;
}

object transformer{
name TX_4504160E_C;
groupid TX_5_C;
configuration TX_config_4504160E_C;
from node_4504160E_03716;
to load_82_C;
phases CS;
nominal_voltage 6928.41 V;
}
object transformer_configuration {
name TX_config_4504160E_C;
connect_type SINGLE_PHASE_CENTER_TAPPED;
primary_voltage 6928.41 V;
secondary_voltage 120 V;
power_rating 5 kVA;
powerC_rating 5 kVA;
impedance 0.00055+0.01045j;
}


object transformer{
name TX_763324E_A;
groupid TX_37_5_A;
configuration TX_config_763324E_A;
from node_763324E_03716;
to load_83_A;
phases AS;
nominal_voltage 6928.41 V;
}
object transformer_configuration {
name TX_config_763324E_A;
connect_type SINGLE_PHASE_CENTER_TAPPED;
primary_voltage 6928.41 V;
secondary_voltage 120 V;
power_rating 37.5 kVA;
powerA_rating 37.5 kVA;
impedance 0.0005+0.0095j;
}


object transformer{
name TX_1335230E_A;
groupid TX_25_A;
configuration TX_config_1335230E_A;
from node_1335230E_03716;
to load_84_A;
phases AS;
nominal_voltage 6928.41 V;
}
object transformer_configuration {
name TX_config_1335230E_A;
connect_type SINGLE_PHASE_CENTER_TAPPED;
primary_voltage 6928.41 V;
secondary_voltage 120 V;
power_rating 25 kVA;
powerA_rating 25 kVA;
impedance 0.0005+0.0095j;
}



object transformer{
name TX_B5077401_A;
groupid TX_100_A;
configuration TX_config_B5077401_A;
from node_B5077401_F_03716;
to load_85_A;
phases AS;
nominal_voltage 6928.41 V;
}
object transformer_configuration {
name TX_config_B5077401_A;
connect_type SINGLE_PHASE_CENTER_TAPPED;
primary_voltage 6928.41 V;
secondary_voltage 120 V;
power_rating 100 kVA;
powerA_rating 100 kVA;
impedance 0.00055+0.01045j;
}


object transformer{
name TX_1511268E_A;
groupid TX_25_A;
configuration TX_config_1511268E_A;
from node_1511268E_03716;
to load_86_A;
phases AS;
nominal_voltage 6928.41 V;
}
object transformer_configuration {
name TX_config_1511268E_A;
connect_type SINGLE_PHASE_CENTER_TAPPED;
primary_voltage 6928.41 V;
secondary_voltage 120 V;
power_rating 25 kVA;
powerA_rating 25 kVA;
impedance 0.0005+0.0095j;
}


object transformer{
name TX_1335104E_A;
groupid TX_8_333_A;
configuration TX_config_1335104E_A;
from node_1335104E_03716;
to load_87_A;
phases AS;
nominal_voltage 6928.41 V;
}
object transformer_configuration {
name TX_config_1335104E_A;
connect_type SINGLE_PHASE_CENTER_TAPPED;
primary_voltage 6928.41 V;
secondary_voltage 120 V;
power_rating 8.333 kVA;
powerA_rating 8.333 kVA;
impedance 0.00055+0.01045j;
}

object transformer{
name TX_1335104E_B;
groupid TX_8_333_B;
configuration TX_config_1335104E_B;
from node_1335104E_03716;
to load_88_B;
phases BS;
nominal_voltage 6928.41 V;
}
object transformer_configuration {
name TX_config_1335104E_B;
connect_type SINGLE_PHASE_CENTER_TAPPED;
primary_voltage 6928.41 V;
secondary_voltage 120 V;
power_rating 8.333 kVA;
powerB_rating 8.333 kVA;
impedance 0.00055+0.01045j;
}

object transformer{
name TX_1335104E_C;
groupid TX_8_333_C;
configuration TX_config_1335104E_C;
from node_1335104E_03716;
to load_89_C;
phases CS;
nominal_voltage 6928.41 V;
}
object transformer_configuration {
name TX_config_1335104E_C;
connect_type SINGLE_PHASE_CENTER_TAPPED;
primary_voltage 6928.41 V;
secondary_voltage 120 V;
power_rating 8.333 kVA;
powerC_rating 8.333 kVA;
impedance 0.00055+0.01045j;
}


object transformer{
name TX_1335214E_A;
groupid TX_37_5_A;
configuration TX_config_1335214E_A;
from node_1335214E_03716;
to load_90_A;
phases AS;
nominal_voltage 6928.41 V;
}
object transformer_configuration {
name TX_config_1335214E_A;
connect_type SINGLE_PHASE_CENTER_TAPPED;
primary_voltage 6928.41 V;
secondary_voltage 120 V;
power_rating 37.5 kVA;
powerA_rating 37.5 kVA;
impedance 0.0005+0.0095j;
}


object transformer{
name TX_1087853E_A;
groupid TX_8_333_A;
configuration TX_config_1087853E_A;
from node_1087853E_03716;
to load_91_A;
phases AS;
nominal_voltage 6928.41 V;
}
object transformer_configuration {
name TX_config_1087853E_A;
connect_type SINGLE_PHASE_CENTER_TAPPED;
primary_voltage 6928.41 V;
secondary_voltage 120 V;
power_rating 8.333 kVA;
powerA_rating 8.333 kVA;
impedance 0.00055+0.01045j;
}

object transformer{
name TX_1087853E_B;
groupid TX_8_333_B;
configuration TX_config_1087853E_B;
from node_1087853E_03716;
to load_92_B;
phases BS;
nominal_voltage 6928.41 V;
}
object transformer_configuration {
name TX_config_1087853E_B;
connect_type SINGLE_PHASE_CENTER_TAPPED;
primary_voltage 6928.41 V;
secondary_voltage 120 V;
power_rating 8.333 kVA;
powerB_rating 8.333 kVA;
impedance 0.00055+0.01045j;
}

object transformer{
name TX_1087853E_C;
groupid TX_8_333_C;
configuration TX_config_1087853E_C;
from node_1087853E_03716;
to load_93_C;
phases CS;
nominal_voltage 6928.41 V;
}
object transformer_configuration {
name TX_config_1087853E_C;
connect_type SINGLE_PHASE_CENTER_TAPPED;
primary_voltage 6928.41 V;
secondary_voltage 120 V;
power_rating 8.333 kVA;
powerC_rating 8.333 kVA;
impedance 0.00055+0.01045j;
}


object transformer{
name TX_B5077396_A;
groupid TX_50_A;
configuration TX_config_B5077396_A;
from node_B5077396_F_03716;
to load_94_A;
phases AS;
nominal_voltage 6928.41 V;
}
object transformer_configuration {
name TX_config_B5077396_A;
connect_type SINGLE_PHASE_CENTER_TAPPED;
primary_voltage 6928.41 V;
secondary_voltage 120 V;
power_rating 50 kVA;
powerA_rating 50 kVA;
impedance 0.0005+0.0095j;
}


object transformer{
name TX_1510069E_A;
groupid TX_15_A;
configuration TX_config_1510069E_A;
from node_1510069E_03716;
to load_95_A;
phases AS;
nominal_voltage 6928.41 V;
}
object transformer_configuration {
name TX_config_1510069E_A;
connect_type SINGLE_PHASE_CENTER_TAPPED;
primary_voltage 6928.41 V;
secondary_voltage 120 V;
power_rating 15 kVA;
powerA_rating 15 kVA;
impedance 0.0005+0.0095j;
}


object transformer{
name TX_1419315E_A;
groupid TX_25_A;
configuration TX_config_1419315E_A;
from node_1419315E_03716;
to load_96_A;
phases AS;
nominal_voltage 6928.41 V;
}
object transformer_configuration {
name TX_config_1419315E_A;
connect_type SINGLE_PHASE_CENTER_TAPPED;
primary_voltage 6928.41 V;
secondary_voltage 120 V;
power_rating 25 kVA;
powerA_rating 25 kVA;
impedance 0.0005+0.0095j;
}


object transformer{
name TX_1087857E_A;
groupid TX_8_333_A;
configuration TX_config_1087857E_A;
from node_1087857E_03716;
to load_97_A;
phases AS;
nominal_voltage 6928.41 V;
}
object transformer_configuration {
name TX_config_1087857E_A;
connect_type SINGLE_PHASE_CENTER_TAPPED;
primary_voltage 6928.41 V;
secondary_voltage 120 V;
power_rating 8.333 kVA;
powerA_rating 8.333 kVA;
impedance 0.00055+0.01045j;
}

object transformer{
name TX_1087857E_B;
groupid TX_8_333_B;
configuration TX_config_1087857E_B;
from node_1087857E_03716;
to load_98_B;
phases BS;
nominal_voltage 6928.41 V;
}
object transformer_configuration {
name TX_config_1087857E_B;
connect_type SINGLE_PHASE_CENTER_TAPPED;
primary_voltage 6928.41 V;
secondary_voltage 120 V;
power_rating 8.333 kVA;
powerB_rating 8.333 kVA;
impedance 0.00055+0.01045j;
}

object transformer{
name TX_1087857E_C;
groupid TX_8_333_C;
configuration TX_config_1087857E_C;
from node_1087857E_03716;
to load_99_C;
phases CS;
nominal_voltage 6928.41 V;
}
object transformer_configuration {
name TX_config_1087857E_C;
connect_type SINGLE_PHASE_CENTER_TAPPED;
primary_voltage 6928.41 V;
secondary_voltage 120 V;
power_rating 8.333 kVA;
powerC_rating 8.333 kVA;
impedance 0.00055+0.01045j;
}


object transformer{
name TX_P5407570_A;
groupid TX_166_667_A;
configuration TX_config_P5407570_A;
from node_P5407570-1_T_03716;
to load_100_A;
phases AS;
nominal_voltage 6928.41 V;
}
object transformer_configuration {
name TX_config_P5407570_A;
connect_type SINGLE_PHASE_CENTER_TAPPED;
primary_voltage 6928.41 V;
secondary_voltage 120 V;
power_rating 166.667 kVA;
powerA_rating 166.667 kVA;
impedance 0.0007+0.0133j;
}

object transformer{
name TX_P5407570_B;
groupid TX_166_667_B;
configuration TX_config_P5407570_B;
from node_P5407570-1_T_03716;
to load_101_B;
phases BS;
nominal_voltage 6928.41 V;
}
object transformer_configuration {
name TX_config_P5407570_B;
connect_type SINGLE_PHASE_CENTER_TAPPED;
primary_voltage 6928.41 V;
secondary_voltage 120 V;
power_rating 166.667 kVA;
powerB_rating 166.667 kVA;
impedance 0.0007+0.0133j;
}

object transformer{
name TX_P5407570_C;
groupid TX_166_667_C;
configuration TX_config_P5407570_C;
from node_P5407570-1_T_03716;
to load_102_C;
phases CS;
nominal_voltage 6928.41 V;
}
object transformer_configuration {
name TX_config_P5407570_C;
connect_type SINGLE_PHASE_CENTER_TAPPED;
primary_voltage 6928.41 V;
secondary_voltage 120 V;
power_rating 166.667 kVA;
powerC_rating 166.667 kVA;
impedance 0.0007+0.0133j;
}


object transformer{
name TX_687850H_A;
groupid TX_25_A;
configuration TX_config_687850H_A;
from node_687850H_03716;
to load_103_A;
phases AS;
nominal_voltage 6928.41 V;
}
object transformer_configuration {
name TX_config_687850H_A;
connect_type SINGLE_PHASE_CENTER_TAPPED;
primary_voltage 6928.41 V;
secondary_voltage 120 V;
power_rating 25 kVA;
powerA_rating 25 kVA;
impedance 0.0005+0.0095j;
}


object transformer{
name TX_763329E_A;
groupid TX_25_A;
configuration TX_config_763329E_A;
from node_763329E_03716;
to load_104_A;
phases AS;
nominal_voltage 6928.41 V;
}
object transformer_configuration {
name TX_config_763329E_A;
connect_type SINGLE_PHASE_CENTER_TAPPED;
primary_voltage 6928.41 V;
secondary_voltage 120 V;
power_rating 25 kVA;
powerA_rating 25 kVA;
impedance 0.0005+0.0095j;
}


object transformer{
name TX_P5072256_A;
groupid TX_75_A;
configuration TX_config_P5072256_A;
from node_P5072256-1_T_03716;
to load_105_A;
phases AS;
nominal_voltage 6928.41 V;
}
object transformer_configuration {
name TX_config_P5072256_A;
connect_type SINGLE_PHASE_CENTER_TAPPED;
primary_voltage 6928.41 V;
secondary_voltage 120 V;
power_rating 75 kVA;
powerA_rating 75 kVA;
impedance 0.00055+0.01045j;
}

object transformer{
name TX_P5072256_B;
groupid TX_75_B;
configuration TX_config_P5072256_B;
from node_P5072256-1_T_03716;
to load_106_B;
phases BS;
nominal_voltage 6928.41 V;
}
object transformer_configuration {
name TX_config_P5072256_B;
connect_type SINGLE_PHASE_CENTER_TAPPED;
primary_voltage 6928.41 V;
secondary_voltage 120 V;
power_rating 75 kVA;
powerB_rating 75 kVA;
impedance 0.00055+0.01045j;
}

object transformer{
name TX_P5072256_C;
groupid TX_75_C;
configuration TX_config_P5072256_C;
from node_P5072256-1_T_03716;
to load_107_C;
phases CS;
nominal_voltage 6928.41 V;
}
object transformer_configuration {
name TX_config_P5072256_C;
connect_type SINGLE_PHASE_CENTER_TAPPED;
primary_voltage 6928.41 V;
secondary_voltage 120 V;
power_rating 75 kVA;
powerC_rating 75 kVA;
impedance 0.00055+0.01045j;
}


object transformer{
name TX_736705H_A;
groupid TX_6_667_A;
configuration TX_config_736705H_A;
from node_736705H_03716;
to load_108_A;
phases AS;
nominal_voltage 6928.41 V;
}
object transformer_configuration {
name TX_config_736705H_A;
connect_type SINGLE_PHASE_CENTER_TAPPED;
primary_voltage 6928.41 V;
secondary_voltage 120 V;
power_rating 6.667 kVA;
powerA_rating 6.667 kVA;
impedance 0.00055+0.01045j;
}

object transformer{
name TX_736705H_B;
groupid TX_6_667_B;
configuration TX_config_736705H_B;
from node_736705H_03716;
to load_109_B;
phases BS;
nominal_voltage 6928.41 V;
}
object transformer_configuration {
name TX_config_736705H_B;
connect_type SINGLE_PHASE_CENTER_TAPPED;
primary_voltage 6928.41 V;
secondary_voltage 120 V;
power_rating 6.667 kVA;
powerB_rating 6.667 kVA;
impedance 0.00055+0.01045j;
}

object transformer{
name TX_736705H_C;
groupid TX_6_667_C;
configuration TX_config_736705H_C;
from node_736705H_03716;
to load_110_C;
phases CS;
nominal_voltage 6928.41 V;
}
object transformer_configuration {
name TX_config_736705H_C;
connect_type SINGLE_PHASE_CENTER_TAPPED;
primary_voltage 6928.41 V;
secondary_voltage 120 V;
power_rating 6.667 kVA;
powerC_rating 6.667 kVA;
impedance 0.00055+0.01045j;
}


object transformer{
name TX_736732H_A;
groupid TX_10_A;
configuration TX_config_736732H_A;
from node_736732H_03716;
to load_111_A;
phases AS;
nominal_voltage 6928.41 V;
}
object transformer_configuration {
name TX_config_736732H_A;
connect_type SINGLE_PHASE_CENTER_TAPPED;
primary_voltage 6928.41 V;
secondary_voltage 120 V;
power_rating 10 kVA;
powerA_rating 10 kVA;
impedance 0.0005+0.0095j;
}


object transformer{
name TX_B5076200_A;
groupid TX_25_A;
configuration TX_config_B5076200_A;
from node_B5076200_F_03716;
to load_112_A;
phases AS;
nominal_voltage 6928.41 V;
}
object transformer_configuration {
name TX_config_B5076200_A;
connect_type SINGLE_PHASE_CENTER_TAPPED;
primary_voltage 6928.41 V;
secondary_voltage 120 V;
power_rating 25 kVA;
powerA_rating 25 kVA;
impedance 0.0005+0.0095j;
}


object transformer{
name TX_4366139E_A;
groupid TX_20_833_A;
configuration TX_config_4366139E_A;
from node_4366139E_03716;
to load_113_A;
phases AS;
nominal_voltage 6928.41 V;
}
object transformer_configuration {
name TX_config_4366139E_A;
connect_type SINGLE_PHASE_CENTER_TAPPED;
primary_voltage 6928.41 V;
secondary_voltage 120 V;
power_rating 20.833 kVA;
powerA_rating 20.833 kVA;
impedance 0.00055+0.01045j;
}

object transformer{
name TX_4366139E_B;
groupid TX_20_833_B;
configuration TX_config_4366139E_B;
from node_4366139E_03716;
to load_114_B;
phases BS;
nominal_voltage 6928.41 V;
}
object transformer_configuration {
name TX_config_4366139E_B;
connect_type SINGLE_PHASE_CENTER_TAPPED;
primary_voltage 6928.41 V;
secondary_voltage 120 V;
power_rating 20.833 kVA;
powerB_rating 20.833 kVA;
impedance 0.00055+0.01045j;
}

object transformer{
name TX_4366139E_C;
groupid TX_20_833_C;
configuration TX_config_4366139E_C;
from node_4366139E_03716;
to load_115_C;
phases CS;
nominal_voltage 6928.41 V;
}
object transformer_configuration {
name TX_config_4366139E_C;
connect_type SINGLE_PHASE_CENTER_TAPPED;
primary_voltage 6928.41 V;
secondary_voltage 120 V;
power_rating 20.833 kVA;
powerC_rating 20.833 kVA;
impedance 0.00055+0.01045j;
}


object transformer{
name TX_P5074276_A;
groupid TX_25_A;
configuration TX_config_P5074276_A;
from node_P5074276-B_T_03716;
to load_116_A;
phases AS;
nominal_voltage 6928.41 V;
}
object transformer_configuration {
name TX_config_P5074276_A;
connect_type SINGLE_PHASE_CENTER_TAPPED;
primary_voltage 6928.41 V;
secondary_voltage 120 V;
power_rating 25 kVA;
powerA_rating 25 kVA;
impedance 0.0005+0.0095j;
}


object transformer{
name TX_B5072423_A;
groupid TX_50_A;
configuration TX_config_B5072423_A;
from node_B5072423_F_03716;
to load_117_A;
phases AS;
nominal_voltage 6928.41 V;
}
object transformer_configuration {
name TX_config_B5072423_A;
connect_type SINGLE_PHASE_CENTER_TAPPED;
primary_voltage 6928.41 V;
secondary_voltage 120 V;
power_rating 50 kVA;
powerA_rating 50 kVA;
impedance 0.0005+0.0095j;
}


object transformer{
name TX_1673790E_A;
groupid TX_50_A;
configuration TX_config_1673790E_A;
from node_1673790E_03716;
to load_118_A;
phases AS;
nominal_voltage 6928.41 V;
}
object transformer_configuration {
name TX_config_1673790E_A;
connect_type SINGLE_PHASE_CENTER_TAPPED;
primary_voltage 6928.41 V;
secondary_voltage 120 V;
power_rating 50 kVA;
powerA_rating 50 kVA;
impedance 0.0005+0.0095j;
}


object transformer{
name TX_763342E_A;
groupid TX_62_5_A;
configuration TX_config_763342E_A;
from node_763342E_03716;
to load_119_A;
phases AS;
nominal_voltage 6928.41 V;
}
object transformer_configuration {
name TX_config_763342E_A;
connect_type SINGLE_PHASE_CENTER_TAPPED;
primary_voltage 6928.41 V;
secondary_voltage 120 V;
power_rating 62.5 kVA;
powerA_rating 62.5 kVA;
impedance 0.00055+0.01045j;
}


object transformer{
name TX_1478408E_A;
groupid TX_25_A;
configuration TX_config_1478408E_A;
from node_1478408E_03716;
to load_120_A;
phases AS;
nominal_voltage 6928.41 V;
}
object transformer_configuration {
name TX_config_1478408E_A;
connect_type SINGLE_PHASE_CENTER_TAPPED;
primary_voltage 6928.41 V;
secondary_voltage 120 V;
power_rating 25 kVA;
powerA_rating 25 kVA;
impedance 0.0005+0.0095j;
}


object transformer{
name TX_736706H_A;
groupid TX_16_667_A;
configuration TX_config_736706H_A;
from node_736706H_03716;
to load_121_A;
phases AS;
nominal_voltage 6928.41 V;
}
object transformer_configuration {
name TX_config_736706H_A;
connect_type SINGLE_PHASE_CENTER_TAPPED;
primary_voltage 6928.41 V;
secondary_voltage 120 V;
power_rating 16.667 kVA;
powerA_rating 16.667 kVA;
impedance 0.00055+0.01045j;
}

object transformer{
name TX_736706H_B;
groupid TX_16_667_B;
configuration TX_config_736706H_B;
from node_736706H_03716;
to load_122_B;
phases BS;
nominal_voltage 6928.41 V;
}
object transformer_configuration {
name TX_config_736706H_B;
connect_type SINGLE_PHASE_CENTER_TAPPED;
primary_voltage 6928.41 V;
secondary_voltage 120 V;
power_rating 16.667 kVA;
powerB_rating 16.667 kVA;
impedance 0.00055+0.01045j;
}

object transformer{
name TX_736706H_C;
groupid TX_16_667_C;
configuration TX_config_736706H_C;
from node_736706H_03716;
to load_123_C;
phases CS;
nominal_voltage 6928.41 V;
}
object transformer_configuration {
name TX_config_736706H_C;
connect_type SINGLE_PHASE_CENTER_TAPPED;
primary_voltage 6928.41 V;
secondary_voltage 120 V;
power_rating 16.667 kVA;
powerC_rating 16.667 kVA;
impedance 0.00055+0.01045j;
}


object transformer{
name TX_1063715E_A;
groupid TX_12_5_A;
configuration TX_config_1063715E_A;
from node_1063715E_03716;
to load_124_A;
phases AS;
nominal_voltage 6928.41 V;
}
object transformer_configuration {
name TX_config_1063715E_A;
connect_type SINGLE_PHASE_CENTER_TAPPED;
primary_voltage 6928.41 V;
secondary_voltage 120 V;
power_rating 12.5 kVA;
powerA_rating 12.5 kVA;
impedance 0.00055+0.01045j;
}

object transformer{
name TX_1063715E_B;
groupid TX_12_5_B;
configuration TX_config_1063715E_B;
from node_1063715E_03716;
to load_125_B;
phases BS;
nominal_voltage 6928.41 V;
}
object transformer_configuration {
name TX_config_1063715E_B;
connect_type SINGLE_PHASE_CENTER_TAPPED;
primary_voltage 6928.41 V;
secondary_voltage 120 V;
power_rating 12.5 kVA;
powerB_rating 12.5 kVA;
impedance 0.00055+0.01045j;
}

object transformer{
name TX_1063715E_C;
groupid TX_12_5_C;
configuration TX_config_1063715E_C;
from node_1063715E_03716;
to load_126_C;
phases CS;
nominal_voltage 6928.41 V;
}
object transformer_configuration {
name TX_config_1063715E_C;
connect_type SINGLE_PHASE_CENTER_TAPPED;
primary_voltage 6928.41 V;
secondary_voltage 120 V;
power_rating 12.5 kVA;
powerC_rating 12.5 kVA;
impedance 0.00055+0.01045j;
}


object transformer{
name TX_1063722E_A;
groupid TX_15_A;
configuration TX_config_1063722E_A;
from node_1063722E_03716;
to load_127_A;
phases AS;
nominal_voltage 6928.41 V;
}
object transformer_configuration {
name TX_config_1063722E_A;
connect_type SINGLE_PHASE_CENTER_TAPPED;
primary_voltage 6928.41 V;
secondary_voltage 120 V;
power_rating 15 kVA;
powerA_rating 15 kVA;
impedance 0.0005+0.0095j;
}


object transformer{
name TX_1642388E_A;
groupid TX_25_A;
configuration TX_config_1642388E_A;
from node_1642388E_03716;
to load_128_A;
phases AS;
nominal_voltage 6928.41 V;
}
object transformer_configuration {
name TX_config_1642388E_A;
connect_type SINGLE_PHASE_CENTER_TAPPED;
primary_voltage 6928.41 V;
secondary_voltage 120 V;
power_rating 25 kVA;
powerA_rating 25 kVA;
impedance 0.0005+0.0095j;
}


object transformer{
name TX_1335222E_A;
groupid TX_25_A;
configuration TX_config_1335222E_A;
from node_1335222E_03716;
to load_129_A;
phases AS;
nominal_voltage 6928.41 V;
}
object transformer_configuration {
name TX_config_1335222E_A;
connect_type SINGLE_PHASE_CENTER_TAPPED;
primary_voltage 6928.41 V;
secondary_voltage 120 V;
power_rating 25 kVA;
powerA_rating 25 kVA;
impedance 0.0005+0.0095j;
}


object transformer{
name TX_687834H_A;
groupid TX_25_A;
configuration TX_config_687834H_A;
from node_687834H_03716;
to load_130_A;
phases AS;
nominal_voltage 6928.41 V;
}
object transformer_configuration {
name TX_config_687834H_A;
connect_type SINGLE_PHASE_CENTER_TAPPED;
primary_voltage 6928.41 V;
secondary_voltage 120 V;
power_rating 25 kVA;
powerA_rating 25 kVA;
impedance 0.0005+0.0095j;
}


object transformer{
name TX_736714H_A;
groupid TX_37_5_A;
configuration TX_config_736714H_A;
from node_736714H_03716;
to load_131_A;
phases AS;
nominal_voltage 6928.41 V;
}
object transformer_configuration {
name TX_config_736714H_A;
connect_type SINGLE_PHASE_CENTER_TAPPED;
primary_voltage 6928.41 V;
secondary_voltage 120 V;
power_rating 37.5 kVA;
powerA_rating 37.5 kVA;
impedance 0.0005+0.0095j;
}


object transformer{
name TX_1478419E_A;
groupid TX_37_5_A;
configuration TX_config_1478419E_A;
from node_1478419E_03716;
to load_132_A;
phases AS;
nominal_voltage 6928.41 V;
}
object transformer_configuration {
name TX_config_1478419E_A;
connect_type SINGLE_PHASE_CENTER_TAPPED;
primary_voltage 6928.41 V;
secondary_voltage 120 V;
power_rating 37.5 kVA;
powerA_rating 37.5 kVA;
impedance 0.0005+0.0095j;
}


object transformer{
name TX_763316E_A;
groupid TX_37_5_A;
configuration TX_config_763316E_A;
from node_763316E_03716;
to load_133_A;
phases AS;
nominal_voltage 6928.41 V;
}
object transformer_configuration {
name TX_config_763316E_A;
connect_type SINGLE_PHASE_CENTER_TAPPED;
primary_voltage 6928.41 V;
secondary_voltage 120 V;
power_rating 37.5 kVA;
powerA_rating 37.5 kVA;
impedance 0.0005+0.0095j;
}


object transformer{
name TX_B5075164_A;
groupid TX_50_A;
configuration TX_config_B5075164_A;
from node_B5075164_F_03716;
to load_134_A;
phases AS;
nominal_voltage 6928.41 V;
}
object transformer_configuration {
name TX_config_B5075164_A;
connect_type SINGLE_PHASE_CENTER_TAPPED;
primary_voltage 6928.41 V;
secondary_voltage 120 V;
power_rating 50 kVA;
powerA_rating 50 kVA;
impedance 0.0005+0.0095j;
}


object transformer{
name TX_687847H_A;
groupid TX_25_A;
configuration TX_config_687847H_A;
from node_687847H_03716;
to load_135_A;
phases AS;
nominal_voltage 6928.41 V;
}
object transformer_configuration {
name TX_config_687847H_A;
connect_type SINGLE_PHASE_CENTER_TAPPED;
primary_voltage 6928.41 V;
secondary_voltage 120 V;
power_rating 25 kVA;
powerA_rating 25 kVA;
impedance 0.0005+0.0095j;
}


object transformer{
name TX_B5073095_A;
groupid TX_50_A;
configuration TX_config_B5073095_A;
from node_B5073095-1_03716;
to load_136_A;
phases AS;
nominal_voltage 6928.41 V;
}
object transformer_configuration {
name TX_config_B5073095_A;
connect_type SINGLE_PHASE_CENTER_TAPPED;
primary_voltage 6928.41 V;
secondary_voltage 120 V;
power_rating 50 kVA;
powerA_rating 50 kVA;
impedance 0.0005+0.0095j;
}


object transformer{
name TX_B5075470_A;
groupid TX_50_A;
configuration TX_config_B5075470_A;
from node_B5075470_F_03716;
to load_137_A;
phases AS;
nominal_voltage 6928.41 V;
}
object transformer_configuration {
name TX_config_B5075470_A;
connect_type SINGLE_PHASE_CENTER_TAPPED;
primary_voltage 6928.41 V;
secondary_voltage 120 V;
power_rating 50 kVA;
powerA_rating 50 kVA;
impedance 0.0005+0.0095j;
}


object transformer{
name TX_1063705E_A;
groupid TX_25_A;
configuration TX_config_1063705E_A;
from node_1063705E_03716;
to load_138_A;
phases AS;
nominal_voltage 6928.41 V;
}
object transformer_configuration {
name TX_config_1063705E_A;
connect_type SINGLE_PHASE_CENTER_TAPPED;
primary_voltage 6928.41 V;
secondary_voltage 120 V;
power_rating 25 kVA;
powerA_rating 25 kVA;
impedance 0.0005+0.0095j;
}


object transformer{
name TX_P5078462_A;
groupid TX_50_A;
configuration TX_config_P5078462_A;
from node_P5078462-1_T_03716;
to load_139_A;
phases AS;
nominal_voltage 6928.41 V;
}
object transformer_configuration {
name TX_config_P5078462_A;
connect_type SINGLE_PHASE_CENTER_TAPPED;
primary_voltage 6928.41 V;
secondary_voltage 120 V;
power_rating 50 kVA;
powerA_rating 50 kVA;
impedance 0.00055+0.01045j;
}

object transformer{
name TX_P5078462_B;
groupid TX_50_B;
configuration TX_config_P5078462_B;
from node_P5078462-1_T_03716;
to load_140_B;
phases BS;
nominal_voltage 6928.41 V;
}
object transformer_configuration {
name TX_config_P5078462_B;
connect_type SINGLE_PHASE_CENTER_TAPPED;
primary_voltage 6928.41 V;
secondary_voltage 120 V;
power_rating 50 kVA;
powerB_rating 50 kVA;
impedance 0.00055+0.01045j;
}

object transformer{
name TX_P5078462_C;
groupid TX_50_C;
configuration TX_config_P5078462_C;
from node_P5078462-1_T_03716;
to load_141_C;
phases CS;
nominal_voltage 6928.41 V;
}
object transformer_configuration {
name TX_config_P5078462_C;
connect_type SINGLE_PHASE_CENTER_TAPPED;
primary_voltage 6928.41 V;
secondary_voltage 120 V;
power_rating 50 kVA;
powerC_rating 50 kVA;
impedance 0.00055+0.01045j;
}


object transformer{
name TX_1511283E_A;
groupid TX_25_A;
configuration TX_config_1511283E_A;
from node_1511283E_03716;
to load_142_A;
phases AS;
nominal_voltage 6928.41 V;
}
object transformer_configuration {
name TX_config_1511283E_A;
connect_type SINGLE_PHASE_CENTER_TAPPED;
primary_voltage 6928.41 V;
secondary_voltage 120 V;
power_rating 25 kVA;
powerA_rating 25 kVA;
impedance 0.0005+0.0095j;
}


object transformer{
name TX_736701H_A;
groupid TX_8_333_A;
configuration TX_config_736701H_A;
from node_736701H_03716;
to load_143_A;
phases AS;
nominal_voltage 6928.41 V;
}
object transformer_configuration {
name TX_config_736701H_A;
connect_type SINGLE_PHASE_CENTER_TAPPED;
primary_voltage 6928.41 V;
secondary_voltage 120 V;
power_rating 8.333 kVA;
powerA_rating 8.333 kVA;
impedance 0.00055+0.01045j;
}

object transformer{
name TX_736701H_B;
groupid TX_8_333_B;
configuration TX_config_736701H_B;
...