VADER_model/cobalt/cobalt_nodes.glm
/////////////////////////////////////////////////////////////////////////////
//
// GridLAB-D service model configuration control file
// Copyright (C) 2016, SLAC National Accelerator Laboratory
// Author: Alyona Ivanova
//
/////////////////////////////////////////////////////////////////////////////


object node{
name node_E5071509_03716;
groupid primary;
phases ABCN;
nominal_voltage 6928.41 V;
} 

object node{
name node_B5075160-2_03716;
groupid primary;
phases A;
nominal_voltage 6928.41 V;
} 

object node{
name node_ND46740059_03716;
groupid primary;
phases ABCN;
nominal_voltage 6928.41 V;
} 

object node{
name node_46739375_03716_1;
groupid primary;
phases ABCN;
nominal_voltage 6928.41 V;
} 

object node{
name node_763346E_03716;
groupid primary;
phases ABN;
nominal_voltage 6928.41 V;
} 

object node{
name node_ND46779547_03716;
groupid primary;
phases ABCN;
nominal_voltage 6928.41 V;
} 

object node{
name node_ND108142671_03716;
groupid primary;
phases ABCN;
nominal_voltage 6928.41 V;
} 

object node{
name node_P5071789_03716;
groupid primary;
phases ABCN;
nominal_voltage 6928.41 V;
} 

object node{
name node_B5076522-2_03716;
groupid primary;
phases ABN;
nominal_voltage 6928.41 V;
} 

object node{
name node_P5447219_03716;
groupid primary;
phases ABCN;
nominal_voltage 6928.41 V;
} 

object node{
name node_ND46779496_03716;
groupid primary;
phases ABCN;
nominal_voltage 6928.41 V;
} 

object node{
name node_P5074269-2_03716;
groupid primary;
phases ABN;
nominal_voltage 6928.41 V;
} 

object node{
name node_1679854E_03716_1;
groupid primary;
phases ABCN;
nominal_voltage 6928.41 V;
} 

object node{
name node_144734810_03716;
groupid primary;
phases ABCN;
nominal_voltage 6928.41 V;
} 

object node{
name node_ND46778842_03716;
groupid primary;
phases ABCN;
nominal_voltage 6928.41 V;
} 

object node{
name node_BS6035-1_03716_1;
groupid primary;
phases A;
nominal_voltage 6928.41 V;
} 

object node{
name node_OS0438-1_03716_1;
groupid primary;
phases ABCN;
nominal_voltage 6928.41 V;
} 

object node{
name node_1063737E_03716;
groupid primary;
phases ABN;
nominal_voltage 6928.41 V;
} 

object node{
name node_1405385E_03716;
groupid primary;
phases ABCN;
nominal_voltage 6928.41 V;
} 

object node{
name node_BF00121_03716_1;
groupid primary;
phases ABN;
nominal_voltage 6928.41 V;
} 

object node{
name node_104951133_03716;
groupid primary;
phases ABCN;
nominal_voltage 6928.41 V;
} 

object node{
name node_148086963_03716;
groupid primary;
phases ABCN;
nominal_voltage 6928.41 V;
} 

object node{
name node_1575627E_03716;
groupid primary;
phases ABCN;
nominal_voltage 6928.41 V;
} 

object node{
name node_144734838_03716;
groupid primary;
phases ABCN;
nominal_voltage 6928.41 V;
} 

object node{
name node_4009393E_03716;
groupid primary;
phases ABN;
nominal_voltage 6928.41 V;
} 

object node{
name node_1135185E_03716;
groupid primary;
phases ABCN;
nominal_voltage 6928.41 V;
} 

object node{
name node_B5072426_F_03716;
groupid primary;
phases A;
nominal_voltage 6928.41 V;
} 

object node{
name node_BF000225_03716;
groupid primary;
phases ABN;
nominal_voltage 6928.41 V;
} 

object node{
name node_B5072427_F_03716;
groupid primary;
phases A;
nominal_voltage 6928.41 V;
} 

object node{
name node_144734911_03716_1;
groupid primary;
phases ABCN;
nominal_voltage 6928.41 V;
} 

object node{
name node_BS2176-1_03716;
groupid primary;
phases A;
nominal_voltage 6928.41 V;
} 

object node{
name node_ND46778906_03716;
groupid primary;
phases ABCN;
nominal_voltage 6928.41 V;
} 

object node{
name node_1276141E_03716;
groupid primary;
phases ABN;
nominal_voltage 6928.41 V;
} 

object node{
name node_687839H_03716;
groupid primary;
phases ABN;
nominal_voltage 6928.41 V;
} 

object node{
name node_B5077395-2_03716;
groupid primary;
phases A;
nominal_voltage 6928.41 V;
} 

object node{
name node_BS5956-R_03716;
groupid primary;
phases ABCN;
nominal_voltage 6928.41 V;
} 

object node{
name node_4636941E_03716;
groupid primary;
phases ABN;
nominal_voltage 6928.41 V;
} 

object node{
name node_B5076318_F_03716;
groupid primary;
phases ABN;
nominal_voltage 6928.41 V;
} 

object node{
name node_BF00227_03716_1;
groupid primary;
phases ABCN;
nominal_voltage 6928.41 V;
} 

object node{
name node_ND46779172_03716;
groupid primary;
phases ABN;
nominal_voltage 6928.41 V;
} 

object node{
name node_B5075367-1_03716;
groupid primary;
phases A;
nominal_voltage 6928.41 V;
} 

object node{
name node_1335388E_03716;
groupid primary;
phases ABN;
nominal_voltage 6928.41 V;
} 

object node{
name node_B5076263-1_03716;
groupid primary;
phases ABN;
nominal_voltage 6928.41 V;
} 

object node{
name node_B5072428-2_03716;
groupid primary;
phases A;
nominal_voltage 6928.41 V;
} 

object node{
name node_1478403E_03716;
groupid primary;
phases ABN;
nominal_voltage 6928.41 V;
} 

object node{
name node_736709H_03716;
groupid primary;
phases ABCN;
nominal_voltage 6928.41 V;
} 

object node{
name node_GS0297-4_03716_1;
groupid primary;
phases ABCN;
nominal_voltage 6928.41 V;
} 

object node{
name node_2028723E_03716_1;
groupid primary;
phases ABN;
nominal_voltage 6928.41 V;
} 

object node{
name node_B5076318-2_03716;
groupid primary;
phases ABN;
nominal_voltage 6928.41 V;
} 

object node{
name node_688927H_03716;
groupid primary;
phases ABN;
nominal_voltage 6928.41 V;
} 

object node{
name node_1717922E_03716;
groupid primary;
phases ABCN;
nominal_voltage 6928.41 V;
} 

object node{
name node_ND46779142_03716;
groupid primary;
phases ABCN;
nominal_voltage 6928.41 V;
} 

object node{
name node_ND46739899_03716;
groupid primary;
phases ABCN;
nominal_voltage 6928.41 V;
} 

object node{
name node_B5072745-2_03716;
groupid primary;
phases A;
nominal_voltage 6928.41 V;
} 

object node{
name node_B5076199_F_03716;
groupid primary;
phases ABN;
nominal_voltage 6928.41 V;
} 

object node{
name node_P5300996-T_T_03716;
groupid primary;
phases ABCN;
nominal_voltage 6928.41 V;
} 

object node{
name node_P5074277-B_03716;
groupid primary;
phases ABN;
nominal_voltage 6928.41 V;
} 

object node{
name node_B5076267-1_03716;
groupid primary;
phases ABN;
nominal_voltage 6928.41 V;
} 

object node{
name node_109080743_03716_1;
groupid primary;
phases ABCN;
nominal_voltage 6928.41 V;
} 

object node{
name node_B5076621_F_03716;
groupid primary;
phases A;
nominal_voltage 6928.41 V;
} 

object node{
name node_P5300996-A_03716;
groupid primary;
phases ABCN;
nominal_voltage 6928.41 V;
} 

object node{
name node_1063702E_03716;
groupid primary;
phases ABN;
nominal_voltage 6928.41 V;
} 

object node{
name node_BS5206-1_03716_1;
groupid primary;
phases A;
nominal_voltage 6928.41 V;
} 

object node{
name node_P5444640-1_03716;
groupid primary;
phases ABCN;
nominal_voltage 6928.41 V;
} 

object node{
name node_1063709E_03716;
groupid primary;
phases ABN;
nominal_voltage 6928.41 V;
} 

object node{
name node_BF00218_03716;
groupid primary;
phases ABCN;
nominal_voltage 6928.41 V;
} 

object node{
name node_P5075747-T_T_03716;
groupid primary;
phases ABCN;
nominal_voltage 6928.41 V;
} 

object node{
name node_B5077401-1_03716;
groupid primary;
phases A;
nominal_voltage 6928.41 V;
} 

object node{
name node_B5077402-2_03716;
groupid primary;
phases A;
nominal_voltage 6928.41 V;
} 

object node{
name node_4009390E_03716_1;
groupid primary;
phases ABCN;
nominal_voltage 6928.41 V;
} 

object node{
name node_46739598_03716;
groupid primary;
phases ABCN;
nominal_voltage 6928.41 V;
} 

object node{
name node_100711528_03716;
groupid primary;
phases ABN;
nominal_voltage 6928.41 V;
} 

object node{
name node_B5075860-2_03716;
groupid primary;
phases A;
nominal_voltage 6928.41 V;
} 

object node{
name node_B5077396_F_03716;
groupid primary;
phases A;
nominal_voltage 6928.41 V;
} 

object node{
name node_ND46781531_03716;
groupid primary;
phases A;
nominal_voltage 6928.41 V;
} 

object node{
name node_738135H_03716;
groupid primary;
phases ABN;
nominal_voltage 6928.41 V;
} 

object node{
name node_B5076622-2_03716;
groupid primary;
phases A;
nominal_voltage 6928.41 V;
} 

object node{
name node_B5072426-2_03716;
groupid primary;
phases A;
nominal_voltage 6928.41 V;
} 

object node{
name node_687847H_03716;
groupid primary;
phases ABN;
nominal_voltage 6928.41 V;
} 

object node{
name node_BF00222_03716_1;
groupid primary;
phases ABCN;
nominal_voltage 6928.41 V;
} 

object node{
name node_B5075370-2_03716;
groupid primary;
phases A;
nominal_voltage 6928.41 V;
} 

object node{
name node_1335222E_03716;
groupid primary;
phases ABN;
nominal_voltage 6928.41 V;
} 

object node{
name node_B5076200-1_03716;
groupid primary;
phases ABN;
nominal_voltage 6928.41 V;
} 

object node{
name node_B5076623-1_03716;
groupid primary;
phases A;
nominal_voltage 6928.41 V;
} 

object node{
name node_1642371E_03716;
groupid primary;
phases ABN;
nominal_voltage 6928.41 V;
} 

object node{
name node_ND46739790_03716;
groupid primary;
phases ABCN;
nominal_voltage 6928.41 V;
} 

object node{
name node_1335226E_03716;
groupid primary;
phases ABN;
nominal_voltage 6928.41 V;
} 

object node{
name node_P5207110-A_03716;
groupid primary;
phases ABCN;
nominal_voltage 6928.41 V;
} 

object node{
name node_P5074272-B_T_03716;
groupid primary;
phases ABN;
nominal_voltage 6928.41 V;
} 

object node{
name node_B5076188-1_03716;
groupid primary;
phases ABN;
nominal_voltage 6928.41 V;
} 

object node{
name node_ND46779093_03716;
groupid primary;
phases ABCN;
nominal_voltage 6928.41 V;
} 

object node{
name node_ND46778984_03716;
groupid primary;
phases ABCN;
nominal_voltage 6928.41 V;
} 

object node{
name node_736718H_03716;
groupid primary;
phases ABN;
nominal_voltage 6928.41 V;
} 

object node{
name node_BF00219_03716;
groupid primary;
phases ABN;
nominal_voltage 6928.41 V;
} 

object node{
name node_1288609E_03716;
groupid primary;
phases ABCN;
nominal_voltage 6928.41 V;
} 

object node{
name node_B5074937-1_03716;
groupid primary;
phases A;
nominal_voltage 6928.41 V;
} 

object node{
name node_BS3123-1_03716_1;
groupid primary;
phases A;
nominal_voltage 6928.41 V;
} 

object node{
name node_4502726E_03716;
groupid primary;
phases ABN;
nominal_voltage 6928.41 V;
} 

object node{
name node_4472865E_03716;
groupid primary;
phases ABN;
nominal_voltage 6928.41 V;
} 

object node{
name node_P5511923-1_03716;
groupid primary;
phases ABCN;
nominal_voltage 6928.41 V;
} 

object node{
name node_B5077403_F_03716;
groupid primary;
phases A;
nominal_voltage 6928.41 V;
} 

object node{
name node_46739375_03716;
groupid primary;
phases ABCN;
nominal_voltage 6928.41 V;
} 

object node{
name node_B5074939_F_03716;
groupid primary;
phases A;
nominal_voltage 6928.41 V;
} 

object node{
name node_1642379E_03716_1;
groupid primary;
phases ABN;
nominal_voltage 6928.41 V;
} 

object node{
name node_687846H_03716;
groupid primary;
phases ABN;
nominal_voltage 6928.41 V;
} 

object node{
name node_ND46779151_03716;
groupid primary;
phases ABN;
nominal_voltage 6928.41 V;
} 

object node{
name node_1135198E_03716;
groupid primary;
phases ABN;
nominal_voltage 6928.41 V;
} 

object node{
name node_ND46739860_03716;
groupid primary;
phases ABCN;
nominal_voltage 6928.41 V;
} 

object node{
name node_B5076194_F_03716;
groupid primary;
phases ABN;
nominal_voltage 6928.41 V;
} 

object node{
name node_B5075556-2_03716;
groupid primary;
phases A;
nominal_voltage 6928.41 V;
} 

object node{
name node_ND46779200_03716;
groupid primary;
phases ABCN;
nominal_voltage 6928.41 V;
} 

object node{
name node_736706H_03716;
groupid primary;
phases ABCN;
nominal_voltage 6928.41 V;
} 

object node{
name node_46739608_03716_1;
groupid primary;
phases ABCN;
nominal_voltage 6928.41 V;
} 

object node{
name node_B5076189-2_03716;
groupid primary;
phases A;
nominal_voltage 6928.41 V;
} 

object node{
name node_P5074269_F_03716;
groupid primary;
phases ABN;
nominal_voltage 6928.41 V;
} 

object node{
name node_1701702E_03716_1;
groupid primary;
phases ABCN;
nominal_voltage 6928.41 V;
} 

object node{
name node_S5074936_F_03716;
groupid primary;
phases A;
nominal_voltage 6928.41 V;
} 

object node{
name node_B5075639-1_03716;
groupid primary;
phases A;
nominal_voltage 6928.41 V;
} 

object node{
name node_1135194E_03716;
groupid primary;
phases ABN;
nominal_voltage 6928.41 V;
} 

object node{
name node_46739618_03716_1;
groupid primary;
phases ABCN;
nominal_voltage 6928.41 V;
} 

object node{
name node_1581599E_03716;
groupid primary;
phases ABN;
nominal_voltage 6928.41 V;
} 

object node{
name node_B5072744_F_03716;
groupid primary;
phases A;
nominal_voltage 6928.41 V;
} 

object node{
name node_688873H_03716;
groupid primary;
phases ABN;
nominal_voltage 6928.41 V;
} 

object node{
name node_P5074270-1_03716;
groupid primary;
phases ABN;
nominal_voltage 6928.41 V;
} 

object node{
name node_1642105E_03716;
groupid primary;
phases ABN;
nominal_voltage 6928.41 V;
} 

object node{
name node_B5075161_F_03716;
groupid primary;
phases A;
nominal_voltage 6928.41 V;
} 

object node{
name node_B5075468-1_03716;
groupid primary;
phases A;
nominal_voltage 6928.41 V;
} 

object node{
name node_B5076187_F_03716;
groupid primary;
phases ABN;
nominal_voltage 6928.41 V;
} 

object node{
name node_ND46739981_03716;
groupid primary;
phases ABCN;
nominal_voltage 6928.41 V;
} 

object node{
name node_1874793E_03716;
groupid primary;
phases ABN;
nominal_voltage 6928.41 V;
} 

object node{
name node_B5075470-2_03716;
groupid primary;
phases A;
nominal_voltage 6928.41 V;
} 

object node{
name node_1679858E_03716_1;
groupid primary;
phases ABN;
nominal_voltage 6928.41 V;
} 

object node{
name node_1581594E_03716;
groupid primary;
phases ABN;
nominal_voltage 6928.41 V;
} 

object node{
name node_763329E_03716;
groupid primary;
phases ABN;
nominal_voltage 6928.41 V;
} 

object node{
name node_P5075839-1_03716;
groupid primary;
phases ABCN;
nominal_voltage 6928.41 V;
} 

object node{
name node_1575617E_03716;
groupid primary;
phases ABN;
nominal_voltage 6928.41 V;
} 

object node{
name node_PS1178_03716;
groupid primary;
phases ABCN;
nominal_voltage 6928.41 V;
} 

object node{
name node_P5512122-1_T_03716;
groupid primary;
phases ABCN;
nominal_voltage 6928.41 V;
} 

object node{
name node_1469081E_03716;
groupid primary;
phases ABN;
nominal_voltage 6928.41 V;
} 

object node{
name node_160132025_03716;
groupid primary;
phases ABCN;
nominal_voltage 6928.41 V;
} 

object node{
name node_4009398E_03716;
groupid primary;
phases ABCN;
nominal_voltage 6928.41 V;
} 

object node{
name node_1642378E_03716;
groupid primary;
phases ABCN;
nominal_voltage 6928.41 V;
} 

object node{
name node_4538745E_03716_1;
groupid primary;
phases ABCN;
nominal_voltage 6928.41 V;
} 

object node{
name node_B5075162-1_03716;
groupid primary;
phases A;
nominal_voltage 6928.41 V;
} 

object node{
name node_B5072745-1_03716;
groupid primary;
phases A;
nominal_voltage 6928.41 V;
} 

object node{
name node_ND46739999_03716;
groupid primary;
phases ABCN;
nominal_voltage 6928.41 V;
} 

object node{
name node_B5072746-2_03716;
groupid primary;
phases A;
nominal_voltage 6928.41 V;
} 

object node{
name node_ND46780998_03716;
groupid primary;
phases ABCN;
nominal_voltage 6928.41 V;
} 

object node{
name node_B5075368-1_03716;
groupid primary;
phases A;
nominal_voltage 6928.41 V;
} 

object node{
name node_763334E_03716;
groupid primary;
phases ABN;
nominal_voltage 6928.41 V;
} 

object node{
name node_ND46740031_03716;
groupid primary;
phases ABCN;
nominal_voltage 6928.41 V;
} 

object node{
name node_B5072813_F_03716;
groupid primary;
phases ABN;
nominal_voltage 6928.41 V;
} 

object node{
name node_BF00225_03716_1;
groupid primary;
phases ABN;
nominal_voltage 6928.41 V;
} 

object node{
name node_P5074271_F_03716;
groupid primary;
phases ABN;
nominal_voltage 6928.41 V;
} 

object node{
name node_ND46739989_03716;
groupid primary;
phases ABCN;
nominal_voltage 6928.41 V;
} 

object node{
name node_1589924E_03716;
groupid primary;
phases ABCN;
nominal_voltage 6928.41 V;
} 

object node{
name node_S5074936-1_03716;
groupid primary;
phases A;
nominal_voltage 6928.41 V;
} 

object node{
name node_PMH0815-3_03716;
groupid primary;
phases ABCN;
nominal_voltage 6928.41 V;
} 

object node{
name node_148086951_03716;
groupid primary;
phases ABCN;
nominal_voltage 6928.41 V;
} 

object node{
name node_1063705E_03716;
groupid primary;
phases ABN;
nominal_voltage 6928.41 V;
} 

object node{
name node_OS0438-4_03716;
groupid primary;
phases ABCN;
nominal_voltage 6928.41 V;
} 

object node{
name node_46738248_03716;
groupid primary;
phases ABCN;
nominal_voltage 6928.41 V;
} 

object node{
name node_1088546E_03716;
groupid primary;
phases ABN;
nominal_voltage 6928.41 V;
} 

object node{
name node_BF00120_03716;
groupid primary;
phases ABN;
nominal_voltage 6928.41 V;
} 

object node{
name node_P5072858-1_03716;
groupid primary;
phases ABCN;
nominal_voltage 6928.41 V;
} 

object node{
name node_ND46779337_03716;
groupid primary;
phases ABN;
nominal_voltage 6928.41 V;
} 

object node{
name node_B5075369-2_03716;
groupid primary;
phases A;
nominal_voltage 6928.41 V;
} 

object node{
name node_PS0793_03716;
groupid primary;
phases ABCN;
nominal_voltage 6928.41 V;
} 

object node{
name node_B5076265-2_03716;
groupid primary;
phases ABN;
nominal_voltage 6928.41 V;
} 

object node{
name node_1642371E_03716_1;
groupid primary;
phases ABN;
nominal_voltage 6928.41 V;
} 

object node{
name node_P5514099-1_T_03716;
groupid primary;
phases ABCN;
nominal_voltage 6928.41 V;
} 

object node{
name node_1469089E_03716;
groupid primary;
phases ABN;
nominal_voltage 6928.41 V;
} 

object node{
name node_736733H_03716;
groupid primary;
phases ABN;
nominal_voltage 6928.41 V;
} 

object node{
name node_2018840E_03716_1;
groupid primary;
phases ABCN;
nominal_voltage 6928.41 V;
} 

object node{
name node_B5074940_F_03716;
groupid primary;
phases A;
nominal_voltage 6928.41 V;
} 

object node{
name node_148058882_03716_1;
groupid primary;
phases ABN;
nominal_voltage 6928.41 V;
} 

object node{
name node_4366139E_03716;
groupid primary;
phases ABCN;
nominal_voltage 6928.41 V;
} 

object node{
name node_B5072424_F_03716;
groupid primary;
phases A;
nominal_voltage 6928.41 V;
} 

object node{
name node_2018840E_03716;
groupid primary;
phases ABCN;
nominal_voltage 6928.41 V;
} 

object node{
name node_1575631E_03716;
groupid primary;
phases ABCN;
nominal_voltage 6928.41 V;
} 

object node{
name node_B5076188_F_03716;
groupid primary;
phases ABN;
nominal_voltage 6928.41 V;
} 

object node{
name node_108142758_03716_1;
groupid primary;
phases ABCN;
nominal_voltage 6928.41 V;
} 

object node{
name node_4538745E_03716;
groupid primary;
phases ABCN;
nominal_voltage 6928.41 V;
} 

object node{
name node_1641750E_03716;
groupid primary;
phases ABCN;
nominal_voltage 6928.41 V;
} 

object node{
name node_1589933E_03716_1;
groupid primary;
phases ABCN;
nominal_voltage 6928.41 V;
} 

object node{
name node_763314E_03716;
groupid primary;
phases ABN;
nominal_voltage 6928.41 V;
} 

object node{
name node_109080743_03716;
groupid primary;
phases ABCN;
nominal_voltage 6928.41 V;
} 

object node{
name node_148058961_03716_1;
groupid primary;
phases ABN;
nominal_voltage 6928.41 V;
} 

object node{
name node_ND46779913_03716;
groupid primary;
phases ABN;
nominal_voltage 6928.41 V;
} 

object node{
name node_P5207110-T_F_03716;
groupid primary;
phases ABCN;
nominal_voltage 6928.41 V;
} 

object node{
name node_GS0297-3_03716;
groupid primary;
phases ABCN;
nominal_voltage 6928.41 V;
} 

object node{
name node_B5076263_F_03716;
groupid primary;
phases ABN;
nominal_voltage 6928.41 V;
} 

object node{
name node_ND46781357_03716;
groupid primary;
phases ABN;
nominal_voltage 6928.41 V;
} 

object node{
name node_1088548E_03716;
groupid primary;
phases ABN;
nominal_voltage 6928.41 V;
} 

object node{
name node_148058992_03716_1;
groupid primary;
phases ABN;
nominal_voltage 6928.41 V;
} 

object node{
name node_GS1322-3_03716_1;
groupid primary;
phases ABCN;
nominal_voltage 6928.41 V;
} 

object node{
name node_1088550E_03716;
groupid primary;
phases ABN;
nominal_voltage 6928.41 V;
} 

object node{
name node_P5300971_03716;
groupid primary;
phases ABCN;
nominal_voltage 6928.41 V;
} 

object node{
name node_B5075890-1_03716;
groupid primary;
phases A;
nominal_voltage 6928.41 V;
} 

object node{
name node_ND46779474_03716;
groupid primary;
phases ABN;
nominal_voltage 6928.41 V;
} 

object node{
name node_P5076661-1_T_03716;
groupid primary;
phases ABCN;
nominal_voltage 6928.41 V;
} 

object node{
name node_4504161E_03716;
groupid primary;
phases ABN;
nominal_voltage 6928.41 V;
} 

object node{
name node_PME9147-1_03716;
groupid primary;
phases ABCN;
nominal_voltage 6928.41 V;
} 

object node{
name node_B5075164_F_03716;
groupid primary;
phases A;
nominal_voltage 6928.41 V;
} 

object node{
name node_P5075839-1_T_03716;
groupid primary;
phases ABCN;
nominal_voltage 6928.41 V;
} 

object node{
name node_ND46739988_03716;
groupid primary;
phases ABCN;
nominal_voltage 6928.41 V;
} 

object node{
name node_ND46779039_03716;
groupid primary;
phases ABCN;
nominal_voltage 6928.41 V;
} 

object node{
name node_716543H_03716;
groupid primary;
phases ABN;
nominal_voltage 6928.41 V;
} 

object node{
name node_1130050E_03716_1;
groupid primary;
phases ABCN;
nominal_voltage 6928.41 V;
} 

object node{
name node_B5075889-1_03716;
groupid primary;
phases A;
nominal_voltage 6928.41 V;
} 

object node{
name node_1641739E_03716;
groupid primary;
phases ABCN;
nominal_voltage 6928.41 V;
} 

object node{
name node_B5076504_F_03716;
groupid primary;
phases ABN;
nominal_voltage 6928.41 V;
} 

object node{
name node_1385964E_03716;
groupid primary;
phases ABCN;
nominal_voltage 6928.41 V;
} 

object node{
name node_BS0932-R_03716;
groupid primary;
phases ABCN;
nominal_voltage 6928.41 V;
} 

object node{
name node_B5072423_F_03716;
groupid primary;
phases A;
nominal_voltage 6928.41 V;
} 

object node{
name node_B5075860-1_03716;
groupid primary;
phases A;
nominal_voltage 6928.41 V;
} 

object node{
name node_B5075556_F_03716;
groupid primary;
phases A;
nominal_voltage 6928.41 V;
} 

object node{
name node_P5407570-1_T_03716;
groupid primary;
phases ABCN;
nominal_voltage 6928.41 V;
} 

object node{
name node_BF00225_03716;
groupid primary;
phases ABN;
nominal_voltage 6928.41 V;
} 

object node{
name node_GS0297-1_03716;
groupid primary;
phases ABCN;
nominal_voltage 6928.41 V;
} 

object node{
name node_108142758_03716;
groupid primary;
phases ABCN;
nominal_voltage 6928.41 V;
} 

object node{
name node_1642390E_03716;
groupid primary;
phases ABN;
nominal_voltage 6928.41 V;
} 

object node{
name node_ND46781033_03716;
groupid primary;
phases ABN;
nominal_voltage 6928.41 V;
} 

object node{
name node_B5074942_F_03716;
groupid primary;
phases A;
nominal_voltage 6928.41 V;
} 

object node{
name node_P5075747-T_F_03716;
groupid primary;
phases ABCN;
nominal_voltage 6928.41 V;
} 

object node{
name node_P5074275-1_03716;
groupid primary;
phases ABN;
nominal_voltage 6928.41 V;
} 

object node{
name node_B5075162_F_03716;
groupid primary;
phases A;
nominal_voltage 6928.41 V;
} 

object node{
name node_1673796E_03716;
groupid primary;
phases ABN;
nominal_voltage 6928.41 V;
} 

object node{
name node_ND46779935_03716;
groupid primary;
phases ABCN;
nominal_voltage 6928.41 V;
} 

object node{
name node_P5073869-A_03716;
groupid primary;
phases ABCN;
nominal_voltage 6928.41 V;
} 

object node{
name node_1478414E_03716;
groupid primary;
phases ABN;
nominal_voltage 6928.41 V;
} 

object node{
name node_ND46739782_03716;
groupid primary;
phases ABCN;
nominal_voltage 6928.41 V;
} 

object node{
name node_B5073095-1_03716;
groupid primary;
phases A;
nominal_voltage 6928.41 V;
} 

object node{
name node_ND46779401_03716;
groupid primary;
phases ABCN;
nominal_voltage 6928.41 V;
} 

object node{
name node_P5074272-B_03716;
groupid primary;
phases ABN;
nominal_voltage 6928.41 V;
} 

object node{
name node_1511268E_03716;
groupid primary;
phases ABN;
nominal_voltage 6928.41 V;
} 

object node{
name node_BF000224_03716;
groupid primary;
phases ABN;
nominal_voltage 6928.41 V;
} 

object node{
name node_1575641E_03716_1;
groupid primary;
phases ABCN;
nominal_voltage 6928.41 V;
} 

object node{
name node_736734H_03716;
groupid primary;
phases ABN;
nominal_voltage 6928.41 V;
} 

object node{
name node_BS5250-1_03716_1;
groupid primary;
phases A;
nominal_voltage 6928.41 V;
} 

object node{
name node_4009390E_03716;
groupid primary;
phases ABCN;
nominal_voltage 6928.41 V;
} 

object node{
name node_1874794E_03716;
groupid primary;
phases ABCN;
nominal_voltage 6928.41 V;
} 

object node{
name node_B5077396-2_03716;
groupid primary;
phases A;
nominal_voltage 6928.41 V;
} 

object node{
name node_2134827E_03716;
groupid primary;
phases ABCN;
nominal_voltage 6928.41 V;
} 

object node{
name node_OS0438-6_03716;
groupid primary;
phases ABCN;
nominal_voltage 6928.41 V;
} 

object node{
name node_P5439147_03716;
groupid primary;
phases ABCN;
nominal_voltage 6928.41 V;
} 

object node{
name node_B5076319_F_03716;
groupid primary;
phases ABN;
nominal_voltage 6928.41 V;
} 

object node{
name node_4667233E_03716;
groupid primary;
phases ABN;
nominal_voltage 6928.41 V;
} 

object node{
name node_P5074272-A_03716;
groupid primary;
phases ABN;
nominal_voltage 6928.41 V;
} 

object node{
name node_ND46739974_03716;
groupid primary;
phases ABN;
nominal_voltage 6928.41 V;
} 

object node{
name node_ND46740092_03716;
groupid primary;
phases ABCN;
nominal_voltage 6928.41 V;
} 

object node{
name node_B5076266-2_03716;
groupid primary;
phases ABN;
nominal_voltage 6928.41 V;
} 

object node{
name node_100711528_03716_1;
groupid primary;
phases ABN;
nominal_voltage 6928.41 V;
} 

object node{
name node_BS2056-1_03716;
groupid primary;
phases ABCN;
nominal_voltage 6928.41 V;
} 

object node{
name node_BS4933-1_03716;
groupid primary;
phases A;
nominal_voltage 6928.41 V;
} 

object node{
name node_B5076507-1_03716;
groupid primary;
phases ABN;
nominal_voltage 6928.41 V;
} 

object node{
name node_B5075859-2_03716;
groupid primary;
phases A;
nominal_voltage 6928.41 V;
} 

object node{
name node_ND46779650_03716;
groupid primary;
phases ABCN;
nominal_voltage 6928.41 V;
} 

object node{
name node_B5075164-2_03716;
groupid primary;
phases A;
nominal_voltage 6928.41 V;
} 

object node{
name node_BF00221_03716_1;
groupid primary;
phases ABCN;
nominal_voltage 6928.41 V;
} 

object node{
name node_P5078461-A_03716;
groupid primary;
phases ABCN;
nominal_voltage 6928.41 V;
} 

object node{
name node_B5076189_F_03716;
groupid primary;
phases A;
nominal_voltage 6928.41 V;
} 

object node{
name node_PS0807_03716_1;
groupid primary;
phases ABCN;
nominal_voltage 6928.41 V;
} 

object node{
name node_ND46780178_03716;
groupid primary;
phases ABCN;
nominal_voltage 6928.41 V;
} 

object node{
name node_P5072856-1_03716;
groupid primary;
phases ABCN;
nominal_voltage 6928.41 V;
} 

object node{
name node_BS5956-L_03716;
groupid primary;
phases ABCN;
nominal_voltage 6928.41 V;
} 

object node{
name node_1469087E_03716;
groupid primary;
phases ABN;
nominal_voltage 6928.41 V;
} 

object node{
name node_B5075469_F_03716;
groupid primary;
phases A;
nominal_voltage 6928.41 V;
} 

object node{
name node_ND145433857_03716;
groupid primary;
phases ABN;
nominal_voltage 6928.41 V;
} 

object node{
name node_B5076522_F_03716;
groupid primary;
phases ABN;
nominal_voltage 6928.41 V;
} 

object node{
name node_1703677E_03716_1;
groupid primary;
phases ABCN;
nominal_voltage 6928.41 V;
} 

object node{
name node_B5076318-1_03716;
groupid primary;
phases ABN;
nominal_voltage 6928.41 V;
} 

object node{
name node_1469096E_03716;
groupid primary;
phases ABN;
nominal_voltage 6928.41 V;
} 

object node{
name node_1419325E_03716;
groupid primary;
phases ABN;
nominal_voltage 6928.41 V;
} 

object node{
name node_ND149492380_03716;
groupid primary;
phases ABN;
nominal_voltage 6928.41 V;
} 

object node{
name node_1874793E_03716_1;
groupid primary;
phases ABN;
nominal_voltage 6928.41 V;
} 

object node{
name node_ND46779351_03716;
groupid primary;
phases ABCN;
nominal_voltage 6928.41 V;
} 

object node{
name node_P5078462-1_T_03716;
...