VADER_model/cobalt/cobalt_lines.glm
/////////////////////////////////////////////////////////////////////////////
//
// GridLAB-D service model configuration control file
// Copyright (C) 2016, SLAC National Accelerator Laboratory
// Author: Alyona Ivanova
//
/////////////////////////////////////////////////////////////////////////////


object line_configuration {
name equivalentsource_03716;
//z11 0+0j;
//z12 0+0j;
//z13 0+0j;
//z21 0+0j;
//z22 0+0j;
//z23 0+0j;
//z31 0+0j;
//z32 0+0j;
//z33 0+0j;
	z11 0.018504+0.393917j;
	z12 -0.005097-0.083535j;
	z13 -0.005097-0.083535j;
	z21 -0.005097-0.083535j;
	z22 0.018504+0.393917j;
	z23 -0.005097-0.083535j;
	z31 -0.005097-0.083535j;
	z32 -0.005097-0.083535j;
	z33 0.018504+0.393917j;
}
object underground_line {
phases ABC;
name source_03716$node_03716;
from source_03716;
to node_03716;
length 5280 ft;
configuration equivalentsource_03716;
}


object line_configuration {
name underground_JCN_3C_1000_5_12_16KV;
z11 0.381568986666667+0.205784664j;
z12 0.225315778666667+0.015988633j;
z13 0.225315778666667+0.015988633j;
z21 0.225315778666667+0.015988633j;
z22 0.381568986666667+0.205784664j;
z23 0.225315778666667+0.015988633j;
z31 0.225315778666667+0.015988633j;
z32 0.225315778666667+0.015988633j;
z33 0.381568986666667+0.205784664j;
}
object line_configuration {
name underground_PILC_3C_350_5_12_16KV;
z11 0.392916727333333+0.246613575333333j;
z12 0.202956578333333+0.0866484043333333j;
z13 0.202956578333333+0.0866484043333333j;
z21 0.202956578333333+0.0866484043333333j;
z22 0.392916727333333+0.246613575333333j;
z23 0.202956578333333+0.0866484043333333j;
z31 0.202956578333333+0.0866484043333333j;
z32 0.202956578333333+0.0866484043333333j;
z33 0.392916727333333+0.246613575333333j;
}
object line_configuration {
name underground_JCN_3C_1_0_5_12_16KV;
z11 1.633727112+0.472154614j;
z12 0.498640363+0.21240409j;
z13 0.498640363+0.21240409j;
z21 0.498640363+0.21240409j;
z22 1.633727112+0.472154614j;
z23 0.498640363+0.21240409j;
z31 0.498640363+0.21240409j;
z32 0.498640363+0.21240409j;
z33 1.633727112+0.472154614j;
}
object line_configuration {
name underground_CLP_3C_1_0_5_12_16KV;
z11 1.63424252833333+0.464290894666667j;
z12 0.500159795333333+0.215327106666667j;
z13 0.500159795333333+0.215327106666667j;
z21 0.500159795333333+0.215327106666667j;
z22 1.63424252833333+0.464290894666667j;
z23 0.500159795333333+0.215327106666667j;
z31 0.500159795333333+0.215327106666667j;
z32 0.500159795333333+0.215327106666667j;
z33 1.63424252833333+0.464290894666667j;
}
object line_configuration {
name underground_DEFAULT;
z11 0.307593066333333+0.188426235666667j;
z12 0.177732285333333-0.000533115333333334j;
z13 0.177732285333333-0.000533115333333334j;
z21 0.177732285333333-0.000533115333333334j;
z22 0.307593066333333+0.188426235666667j;
z23 0.177732285333333-0.000533115333333334j;
z31 0.177732285333333-0.000533115333333334j;
z32 0.177732285333333-0.000533115333333334j;
z33 0.307593066333333+0.188426235666667j;
}
object line_configuration {
name underground_CLP_2C_#2_5_12_16KV;
z11 1.93915124633333+0.495292570333333j;
z12 0.527403383333333+0.221093226333333j;
z13 0.527403383333333+0.221093226333333j;
z21 0.527403383333333+0.221093226333333j;
z22 1.93915124633333+0.495292570333333j;
z23 0.527403383333333+0.221093226333333j;
z31 0.527403383333333+0.221093226333333j;
z32 0.527403383333333+0.221093226333333j;
z33 1.93915124633333+0.495292570333333j;
}
object line_configuration {
name underground_CLP_3C_#2_5_12_16KV;
z11 2.25478609466667+0.451953082666667j;
z12 0.469360853666667+0.176738459666667j;
z13 0.469360853666667+0.176738459666667j;
z21 0.469360853666667+0.176738459666667j;
z22 2.25478609466667+0.451953082666667j;
z23 0.469360853666667+0.176738459666667j;
z31 0.469360853666667+0.176738459666667j;
z32 0.469360853666667+0.176738459666667j;
z33 2.25478609466667+0.451953082666667j;
}
object line_configuration {
name underground_BUS;
z11 0.000999189+0.000999189j;
z12 0+0j;
z13 0+0j;
z21 0+0j;
z22 0.000999189+0.000999189j;
z23 0+0j;
z31 0+0j;
z32 0+0j;
z33 0.000999189+0.000999189j;
}
object line_configuration {
name underground_CLP_1C_750_5_12_16KV;
z11 0.443786335+1.300617451j;
z12 0+0j;
z13 0+0j;
z21 0+0j;
z22 0.443786335+1.300617451j;
z23 0+0j;
z31 0+0j;
z32 0+0j;
z33 0.443786335+1.300617451j;
}
object line_configuration {
name underground_CLP_2C_750_5_12_16KV;
z11 0.530318891333333+0.289823270333333j;
z12 0.393417126333333+0.0995638473333333j;
z13 0.393417126333333+0.0995638473333333j;
z21 0.393417126333333+0.0995638473333333j;
z22 0.530318891333333+0.289823270333333j;
z23 0.393417126333333+0.0995638473333333j;
z31 0.393417126333333+0.0995638473333333j;
z32 0.393417126333333+0.0995638473333333j;
z33 0.530318891333333+0.289823270333333j;
}
object line_configuration {
name underground_CLP_3C_750_5_12_16KV;
z11 0.386699551333333+0.221074991j;
z12 0.205424784333333-0.00155429399999999j;
z13 0.205424784333333-0.00155429399999999j;
z21 0.205424784333333-0.00155429399999999j;
z22 0.386699551333333+0.221074991j;
...