VADER_model/cobalt/cobalt_current.csv
# cobalt_current.csv run at 2013-01-01 00:00:00 PST on 1286 links
link_name,currA_real,currA_imag,currB_real,currB_imag,currC_real,currC_imag
TX_B5075890_A,0.223257,-0.024964,0.000000,0.000000,0.000000,0.000000
TX_4504161E_A,0.223448,-0.024859,0.000000,0.000000,0.000000,0.000000
TX_763321E_A,0.222391,-0.025290,0.000000,0.000000,0.000000,0.000000
TX_1136202E_A,0.222259,-0.025370,0.000000,0.000000,0.000000,0.000000
TX_1136202E_B,0.000000,0.000000,-0.132299,-0.180365,0.000000,0.000000
TX_1136202E_C,0.000000,0.000000,0.000000,0.000000,-0.089069,0.203414
TX_4704578E_A,0.223305,-0.024981,0.000000,0.000000,0.000000,0.000000
TX_1469089E_A,0.223125,-0.025307,0.000000,0.000000,0.000000,0.000000
TX_P5072858_A,0.222693,-0.024329,0.000000,0.000000,0.000000,0.000000
TX_P5072858_B,0.000000,0.000000,-0.133340,-0.180473,0.000000,0.000000
TX_P5072858_C,0.000000,0.000000,0.000000,0.000000,-0.088406,0.202634
TX_P5074272_A,0.222673,-0.025290,0.000000,0.000000,0.000000,0.000000
TX_1135178E_A,0.222456,-0.024999,0.000000,0.000000,0.000000,0.000000
TX_1469084E_A,0.223136,-0.025315,0.000000,0.000000,0.000000,0.000000
TX_B5076189_A,0.223479,-0.024789,0.000000,0.000000,0.000000,0.000000
TX_B5076621_A,0.223257,-0.024949,0.000000,0.000000,0.000000,0.000000
TX_B5076319_A,0.223707,-0.024582,0.000000,0.000000,0.000000,0.000000
TX_1063707E_A,0.222445,-0.025073,0.000000,0.000000,0.000000,0.000000
TX_763347E_A,0.222443,-0.025071,0.000000,0.000000,0.000000,0.000000
TX_B5072426_A,0.223474,-0.024785,0.000000,0.000000,0.000000,0.000000
TX_1335103E_A,0.222871,-0.025587,0.000000,0.000000,0.000000,0.000000
TX_1335103E_B,0.000000,0.000000,-0.133630,-0.179506,0.000000,0.000000
TX_1335103E_C,0.000000,0.000000,0.000000,0.000000,-0.088134,0.202663
TX_S5074936_A,0.223480,-0.024863,0.000000,0.000000,0.000000,0.000000
TX_1286120E_A,0.222807,-0.025893,0.000000,0.000000,0.000000,0.000000
TX_1286120E_B,0.000000,0.000000,-0.133806,-0.179391,0.000000,0.000000
TX_1286120E_C,0.000000,0.000000,0.000000,0.000000,-0.087907,0.202822
TX_B5076272_A,0.223302,-0.024959,0.000000,0.000000,0.000000,0.000000
TX_1681006E_A,0.224363,-0.023459,0.000000,0.000000,0.000000,0.000000
TX_1335106E_A,0.222910,-0.026232,0.000000,0.000000,0.000000,0.000000
TX_1335106E_B,0.000000,0.000000,-0.134165,-0.179204,0.000000,0.000000
TX_1335106E_C,0.000000,0.000000,0.000000,0.000000,-0.087650,0.202996
TX_1642384E_A,0.222692,-0.025302,0.000000,0.000000,0.000000,0.000000
TX_1063729E_A,0.222533,-0.024720,0.000000,0.000000,0.000000,0.000000
TX_B5075368_A,0.223481,-0.024815,0.000000,0.000000,0.000000,0.000000
TX_1717922E_A,0.222331,-0.025334,0.000000,0.000000,0.000000,0.000000
TX_1717922E_B,0.000000,0.000000,-0.132378,-0.180303,0.000000,0.000000
TX_1717922E_C,0.000000,0.000000,0.000000,0.000000,-0.089060,0.203314
TX_687836H_A,0.223314,-0.025121,0.000000,0.000000,0.000000,0.000000
TX_1673799E_A,0.222702,-0.025301,0.000000,0.000000,0.000000,0.000000
TX_B5076265_A,0.223303,-0.024959,0.000000,0.000000,0.000000,0.000000
TX_B5075639_A,0.223480,-0.024812,0.000000,0.000000,0.000000,0.000000
TX_1575635E_A,0.222614,-0.026281,0.000000,0.000000,0.000000,0.000000
TX_1575635E_B,0.000000,0.000000,-0.133726,-0.179510,0.000000,0.000000
TX_1575635E_C,0.000000,0.000000,0.000000,0.000000,-0.087846,0.203377
TX_1252673E_A,0.222598,-0.024656,0.000000,0.000000,0.000000,0.000000
TX_688864H_A,0.223316,-0.025003,0.000000,0.000000,0.000000,0.000000
TX_1575613E_A,0.224354,-0.023410,0.000000,0.000000,0.000000,0.000000
TX_1642109E_A,0.224359,-0.023456,0.000000,0.000000,0.000000,0.000000
TX_2243141E_A,0.223326,-0.025590,0.000000,0.000000,0.000000,0.000000
TX_2243141E_B,0.000000,0.000000,-0.134371,-0.179384,0.000000,0.000000
TX_2243141E_C,0.000000,0.000000,0.000000,0.000000,-0.087872,0.202742
TX_1642390E_A,0.224358,-0.023456,0.000000,0.000000,0.000000,0.000000
TX_688856H_A,0.223312,-0.025039,0.000000,0.000000,0.000000,0.000000
TX_1575639E_A,0.222831,-0.026174,0.000000,0.000000,0.000000,0.000000
TX_1575639E_B,0.000000,0.000000,-0.133948,-0.179476,0.000000,0.000000
TX_1575639E_C,0.000000,0.000000,0.000000,0.000000,-0.087836,0.203323
TX_738140H_A,0.222907,-0.025419,0.000000,0.000000,0.000000,0.000000
TX_1641743E_A,0.222697,-0.025387,0.000000,0.000000,0.000000,0.000000
TX_1673796E_A,0.222700,-0.025238,0.000000,0.000000,0.000000,0.000000
TX_P5363732_A,0.223471,-0.024759,0.000000,0.000000,0.000000,0.000000
TX_P5363732_B,0.000000,0.000000,-0.134404,-0.179415,0.000000,0.000000
TX_P5363732_C,0.000000,0.000000,0.000000,0.000000,-0.087989,0.202093
TX_1405381E_A,0.223012,-0.025511,0.000000,0.000000,0.000000,0.000000
TX_1405381E_B,0.000000,0.000000,-0.133768,-0.179489,0.000000,0.000000
TX_1405381E_C,0.000000,0.000000,0.000000,0.000000,-0.088124,0.202630
TX_B5076522_A,0.223308,-0.024972,0.000000,0.000000,0.000000,0.000000
TX_4636941E_A,0.222587,-0.024648,0.000000,0.000000,0.000000,0.000000
TX_1589924E_A,0.223978,-0.024122,0.000000,0.000000,0.000000,0.000000
TX_1589924E_B,0.000000,0.000000,-0.135046,-0.179674,0.000000,0.000000
TX_1589924E_C,0.000000,0.000000,0.000000,0.000000,-0.087909,0.202028
TX_1063727E_A,0.222543,-0.024849,0.000000,0.000000,0.000000,0.000000
TX_P5511923_A,0.222440,-0.025352,0.000000,0.000000,0.000000,0.000000
TX_P5511923_B,0.000000,0.000000,-0.132590,-0.180203,0.000000,0.000000
TX_P5511923_C,0.000000,0.000000,0.000000,0.000000,-0.088883,0.203242
TX_687827H_A,0.223309,-0.025108,0.000000,0.000000,0.000000,0.000000
TX_B5076507_A,0.223307,-0.024955,0.000000,0.000000,0.000000,0.000000
TX_B5075469_A,0.223484,-0.024825,0.000000,0.000000,0.000000,0.000000
TX_688868H_A,0.223315,-0.025125,0.000000,0.000000,0.000000,0.000000
TX_4504160E_A,0.223539,-0.025372,0.000000,0.000000,0.000000,0.000000
TX_4504160E_B,0.000000,0.000000,-0.134714,-0.179419,0.000000,0.000000
TX_4504160E_C,0.000000,0.000000,0.000000,0.000000,-0.087745,0.202652
TX_763324E_A,0.222391,-0.025289,0.000000,0.000000,0.000000,0.000000
TX_1335230E_A,0.223163,-0.025118,0.000000,0.000000,0.000000,0.000000
TX_B5077401_A,0.222396,-0.024995,0.000000,0.000000,0.000000,0.000000
TX_1511268E_A,0.223156,-0.025330,0.000000,0.000000,0.000000,0.000000
TX_1335104E_A,0.222874,-0.025591,0.000000,0.000000,0.000000,0.000000
TX_1335104E_B,0.000000,0.000000,-0.133625,-0.179503,0.000000,0.000000
TX_1335104E_C,0.000000,0.000000,0.000000,0.000000,-0.088141,0.202665
TX_1335214E_A,0.222865,-0.025261,0.000000,0.000000,0.000000,0.000000
TX_1087853E_A,0.222407,-0.025371,0.000000,0.000000,0.000000,0.000000
TX_1087853E_B,0.000000,0.000000,-0.132902,-0.180248,0.000000,0.000000
TX_1087853E_C,0.000000,0.000000,0.000000,0.000000,-0.088614,0.203332
TX_B5077396_A,0.223473,-0.024797,0.000000,0.000000,0.000000,0.000000
TX_1510069E_A,0.223000,-0.025301,0.000000,0.000000,0.000000,0.000000
TX_1419315E_A,0.223116,-0.025300,0.000000,0.000000,0.000000,0.000000
TX_1087857E_A,0.222410,-0.025374,0.000000,0.000000,0.000000,0.000000
TX_1087857E_B,0.000000,0.000000,-0.132901,-0.180246,0.000000,0.000000
TX_1087857E_C,0.000000,0.000000,0.000000,0.000000,-0.088617,0.203333
TX_P5407570_A,0.222392,-0.024983,0.000000,0.000000,0.000000,0.000000
TX_P5407570_B,0.000000,0.000000,-0.132554,-0.180427,0.000000,0.000000
TX_P5407570_C,0.000000,0.000000,0.000000,0.000000,-0.088937,0.203129
TX_687850H_A,0.223309,-0.025031,0.000000,0.000000,0.000000,0.000000
TX_763329E_A,0.222342,-0.025188,0.000000,0.000000,0.000000,0.000000
TX_P5072256_A,0.222692,-0.025218,0.000000,0.000000,0.000000,0.000000
TX_P5072256_B,0.000000,0.000000,-0.132755,-0.180144,0.000000,0.000000
TX_P5072256_C,0.000000,0.000000,0.000000,0.000000,-0.088880,0.203105
TX_736705H_A,0.222903,-0.025720,0.000000,0.000000,0.000000,0.000000
TX_736705H_B,0.000000,0.000000,-0.133683,-0.179437,0.000000,0.000000
TX_736705H_C,0.000000,0.000000,0.000000,0.000000,-0.088100,0.202736
TX_736732H_A,0.222874,-0.025494,0.000000,0.000000,0.000000,0.000000
TX_B5076200_A,0.223709,-0.024646,0.000000,0.000000,0.000000,0.000000
TX_4366139E_A,0.222228,-0.025449,0.000000,0.000000,0.000000,0.000000
TX_4366139E_B,0.000000,0.000000,-0.132321,-0.180359,0.000000,0.000000
TX_4366139E_C,0.000000,0.000000,0.000000,0.000000,-0.089019,0.203486
TX_P5074276_A,0.222682,-0.025297,0.000000,0.000000,0.000000,0.000000
TX_B5072423_A,0.223474,-0.024798,0.000000,0.000000,0.000000,0.000000
TX_1673790E_A,0.224362,-0.023396,0.000000,0.000000,0.000000,0.000000
TX_763342E_A,0.222437,-0.024918,0.000000,0.000000,0.000000,0.000000
TX_1478408E_A,0.223134,-0.025313,0.000000,0.000000,0.000000,0.000000
TX_736706H_A,0.222895,-0.025408,0.000000,0.000000,0.000000,0.000000
TX_736706H_B,0.000000,0.000000,-0.133404,-0.179581,0.000000,0.000000
TX_736706H_C,0.000000,0.000000,0.000000,0.000000,-0.088358,0.202576
TX_1063715E_A,0.222501,-0.025019,0.000000,0.000000,0.000000,0.000000
TX_1063715E_B,0.000000,0.000000,-0.149877,-0.201622,0.000000,0.000000
TX_1063715E_C,0.000000,0.000000,0.000000,0.000000,-0.088611,0.203134
TX_1063722E_A,0.222552,-0.024856,0.000000,0.000000,0.000000,0.000000
TX_1642388E_A,0.222668,-0.025286,0.000000,0.000000,0.000000,0.000000
TX_1335222E_A,0.223157,-0.025113,0.000000,0.000000,0.000000,0.000000
TX_687834H_A,0.223310,-0.025031,0.000000,0.000000,0.000000,0.000000
TX_736714H_A,0.222899,-0.025289,0.000000,0.000000,0.000000,0.000000
TX_1478419E_A,0.223142,-0.025278,0.000000,0.000000,0.000000,0.000000
TX_763316E_A,0.222482,-0.025249,0.000000,0.000000,0.000000,0.000000
TX_B5075164_A,0.223479,-0.024808,0.000000,0.000000,0.000000,0.000000
TX_687847H_A,0.223311,-0.025038,0.000000,0.000000,0.000000,0.000000
TX_B5073095_A,0.223254,-0.024956,0.000000,0.000000,0.000000,0.000000
TX_B5075470_A,0.223484,-0.024823,0.000000,0.000000,0.000000,0.000000
TX_1063705E_A,0.222444,-0.024991,0.000000,0.000000,0.000000,0.000000
TX_P5078462_A,0.222689,-0.025242,0.000000,0.000000,0.000000,0.000000
TX_P5078462_B,0.000000,0.000000,-0.132780,-0.180132,0.000000,0.000000
TX_P5078462_C,0.000000,0.000000,0.000000,0.000000,-0.088853,0.203116
TX_1511283E_A,0.223162,-0.025334,0.000000,0.000000,0.000000,0.000000
TX_736701H_A,0.222891,-0.025610,0.000000,0.000000,0.000000,0.000000
TX_736701H_B,0.000000,0.000000,-0.133599,-0.179489,0.000000,0.000000
TX_736701H_C,0.000000,0.000000,0.000000,0.000000,-0.088174,0.202678
TX_763334E_A,0.222396,-0.025010,0.000000,0.000000,0.000000,0.000000
TX_B5072745_A,0.223254,-0.024954,0.000000,0.000000,0.000000,0.000000
TX_1575632E_A,0.222639,-0.026247,0.000000,0.000000,0.000000,0.000000
TX_1575632E_B,0.000000,0.000000,-0.133700,-0.179580,0.000000,0.000000
TX_1575632E_C,0.000000,0.000000,0.000000,0.000000,-0.087908,0.203466
TX_1063734E_A,0.222594,-0.024612,0.000000,0.000000,0.000000,0.000000
TX_1335388E_A,0.222357,-0.025057,0.000000,0.000000,0.000000,0.000000
TX_B5072424_A,0.223474,-0.024799,0.000000,0.000000,0.000000,0.000000
TX_1511278E_A,0.223165,-0.025419,0.000000,0.000000,0.000000,0.000000
TX_B5076199_A,0.223708,-0.024582,0.000000,0.000000,0.000000,0.000000
TX_P5073869_A,0.222687,-0.025242,0.000000,0.000000,0.000000,0.000000
TX_P5073869_B,0.000000,0.000000,-0.132781,-0.180132,0.000000,0.000000
TX_P5073869_C,0.000000,0.000000,0.000000,0.000000,-0.088851,0.203115
TX_1478414E_A,0.223152,-0.025409,0.000000,0.000000,0.000000,0.000000
TX_B5076187_A,0.223706,-0.024581,0.000000,0.000000,0.000000,0.000000
TX_B5076267_A,0.223305,-0.025022,0.000000,0.000000,0.000000,0.000000
TX_1478421E_A,0.223154,-0.025411,0.000000,0.000000,0.000000,0.000000
TX_4502189E_A,0.223162,-0.025117,0.000000,0.000000,0.000000,0.000000
TX_B5074938_A,0.223478,-0.024787,0.000000,0.000000,0.000000,0.000000
TX_1419320E_A,0.223125,-0.025306,0.000000,0.000000,0.000000,0.000000
TX_1510065E_A,0.222998,-0.025300,0.000000,0.000000,0.000000,0.000000
TX_1335232E_A,0.222854,-0.025213,0.000000,0.000000,0.000000,0.000000
TX_P5447219_A,0.222737,-0.024190,0.000000,0.000000,0.000000,0.000000
TX_P5447219_B,0.000000,0.000000,-0.133449,-0.180498,0.000000,0.000000
TX_P5447219_C,0.000000,0.000000,0.000000,0.000000,-0.088344,0.202554
TX_1288609E_A,0.222828,-0.025101,0.000000,0.000000,0.000000,0.000000
TX_1288609E_B,0.000000,0.000000,-0.134429,-0.180033,0.000000,0.000000
TX_1288609E_C,0.000000,0.000000,0.000000,0.000000,-0.087502,0.203020
TX_1511252E_A,0.223152,-0.025326,0.000000,0.000000,0.000000,0.000000
TX_1335235E_A,0.222866,-0.025303,0.000000,0.000000,0.000000,0.000000
TX_1335243E_A,0.222884,-0.025403,0.000000,0.000000,0.000000,0.000000
TX_P5074271_A,0.222667,-0.025224,0.000000,0.000000,0.000000,0.000000
TX_B5072746_A,0.223257,-0.025018,0.000000,0.000000,0.000000,0.000000
TX_763314E_A,0.222482,-0.025250,0.000000,0.000000,0.000000,0.000000
TX_1135180E_A,0.222459,-0.025083,0.000000,0.000000,0.000000,0.000000
TX_688863H_A,0.223316,-0.025003,0.000000,0.000000,0.000000,0.000000
TX_1591147E_A,0.222886,-0.025405,0.000000,0.000000,0.000000,0.000000
TX_P5072856_A,0.224351,-0.023363,0.000000,0.000000,0.000000,0.000000
TX_P5072856_B,0.000000,0.000000,-0.135677,-0.179666,0.000000,0.000000
TX_P5072856_C,0.000000,0.000000,0.000000,0.000000,-0.087751,0.201640
TX_1276141E_A,0.222481,-0.025248,0.000000,0.000000,0.000000,0.000000
TX_1225980E_A,0.223255,-0.025629,0.000000,0.000000,0.000000,0.000000
TX_1225980E_B,0.000000,0.000000,-0.134295,-0.179394,0.000000,0.000000
TX_1225980E_C,0.000000,0.000000,0.000000,0.000000,-0.087879,0.202760
TX_B5075161_A,0.223478,-0.024808,0.000000,0.000000,0.000000,0.000000
TX_1063702E_A,0.222455,-0.025080,0.000000,0.000000,0.000000,0.000000
TX_1405385E_A,0.223055,-0.025404,0.000000,0.000000,0.000000,0.000000
TX_1405385E_B,0.000000,0.000000,-0.133608,-0.179530,0.000000,0.000000
TX_1405385E_C,0.000000,0.000000,0.000000,0.000000,-0.088282,0.202577
TX_P5512122_A,0.222223,-0.025317,0.000000,0.000000,0.000000,0.000000
TX_P5512122_B,0.000000,0.000000,-0.132204,-0.180420,0.000000,0.000000
TX_P5512122_C,0.000000,0.000000,0.000000,0.000000,-0.089128,0.203417
TX_P5074274_A,0.222683,-0.025297,0.000000,0.000000,0.000000,0.000000
TX_1589934E_A,0.224356,-0.023461,0.000000,0.000000,0.000000,0.000000
TX_1589934E_B,0.000000,0.000000,-0.135756,-0.179619,0.000000,0.000000
TX_1589934E_C,0.000000,0.000000,0.000000,0.000000,-0.087681,0.201689
TX_1063712E_A,0.222527,-0.025434,0.000000,0.000000,0.000000,0.000000
TX_1063712E_B,0.000000,0.000000,-0.133370,-0.180153,0.000000,0.000000
TX_1063712E_C,0.000000,0.000000,0.000000,0.000000,-0.088275,0.203357
TX_1469087E_A,0.223141,-0.025318,0.000000,0.000000,0.000000,0.000000
TX_1575620E_A,0.224363,-0.023458,0.000000,0.000000,0.000000,0.000000
TX_1063709E_A,0.222438,-0.024986,0.000000,0.000000,0.000000,0.000000
TX_P5207110_A,0.223146,-0.025032,0.000000,0.000000,0.000000,0.000000
TX_P5207110_B,0.000000,0.000000,-0.134477,-0.178998,0.000000,0.000000
TX_P5207110_C,0.000000,0.000000,0.000000,0.000000,-0.087593,0.201945
TX_B5075889_A,0.223256,-0.024959,0.000000,0.000000,0.000000,0.000000
TX_P5075839_A,0.222696,-0.025199,0.000000,0.000000,0.000000,0.000000
TX_P5075839_B,0.000000,0.000000,-0.132733,-0.180154,0.000000,0.000000
TX_P5075839_C,0.000000,0.000000,0.000000,0.000000,-0.088904,0.203098
TX_1703676E_A,0.223625,-0.025653,0.000000,0.000000,0.000000,0.000000
TX_1703676E_B,0.000000,0.000000,-0.135275,-0.179131,0.000000,0.000000
TX_1703676E_C,0.000000,0.000000,0.000000,0.000000,-0.087322,0.202687
TX_1575617E_A,0.224359,-0.023413,0.000000,0.000000,0.000000,0.000000
TX_736709H_A,0.222910,-0.025622,0.000000,0.000000,0.000000,0.000000
TX_736709H_B,0.000000,0.000000,-0.133584,-0.179481,0.000000,0.000000
TX_736709H_C,0.000000,0.000000,0.000000,0.000000,-0.088195,0.202687
TX_763327E_A,0.222343,-0.025189,0.000000,0.000000,0.000000,0.000000
TX_1575624E_A,0.224376,-0.023654,0.000000,0.000000,0.000000,0.000000
TX_1679518E_A,0.222513,-0.025416,0.000000,0.000000,0.000000,0.000000
TX_1679518E_B,0.000000,0.000000,-0.132795,-0.180098,0.000000,0.000000
TX_1679518E_C,0.000000,0.000000,0.000000,0.000000,-0.088685,0.203200
TX_B5075163_A,0.223482,-0.024870,0.000000,0.000000,0.000000,0.000000
TX_2319946E_A,0.222883,-0.025403,0.000000,0.000000,0.000000,0.000000
TX_1575631E_A,0.222653,-0.025859,0.000000,0.000000,0.000000,0.000000
TX_1575631E_B,0.000000,0.000000,-0.133361,-0.179821,0.000000,0.000000
TX_1575631E_C,0.000000,0.000000,0.000000,0.000000,-0.088265,0.203387
TX_B5075370_A,0.223481,-0.024813,0.000000,0.000000,0.000000,0.000000
TX_1680863E_A,0.222600,-0.025590,0.000000,0.000000,0.000000,0.000000
TX_1680863E_B,0.000000,0.000000,-0.133054,-0.179988,0.000000,0.000000
TX_1680863E_C,0.000000,0.000000,0.000000,0.000000,-0.088517,0.203291
TX_1252665E_A,0.222634,-0.024567,0.000000,0.000000,0.000000,0.000000
TX_B5077395_A,0.223473,-0.024796,0.000000,0.000000,0.000000,0.000000
TX_1511273E_A,0.223163,-0.025418,0.000000,0.000000,0.000000,0.000000
TX_P5072132_A,0.222693,-0.024329,0.000000,0.000000,0.000000,0.000000
TX_P5072132_B,0.000000,0.000000,-0.133340,-0.180473,0.000000,0.000000
TX_P5072132_C,0.000000,0.000000,0.000000,0.000000,-0.088406,0.202634
TX_4470237E_A,0.222260,-0.025405,0.000000,0.000000,0.000000,0.000000
TX_4470237E_B,0.000000,0.000000,-0.132330,-0.180349,0.000000,0.000000
TX_4470237E_C,0.000000,0.000000,0.000000,0.000000,-0.089041,0.203432
TX_B5077400_A,0.222397,-0.025023,0.000000,0.000000,0.000000,0.000000
TX_1252678E_A,0.222601,-0.024658,0.000000,0.000000,0.000000,0.000000
TX_P5511905_A,0.222433,-0.025382,0.000000,0.000000,0.000000,0.000000
TX_P5511905_B,0.000000,0.000000,-0.132662,-0.180144,0.000000,0.000000
TX_P5511905_C,0.000000,0.000000,0.000000,0.000000,-0.088739,0.203182
TX_4742140E_A,0.223303,-0.024974,0.000000,0.000000,0.000000,0.000000
TX_B5077403_A,0.222398,-0.025023,0.000000,0.000000,0.000000,0.000000
TX_B5074939_A,0.223478,-0.024785,0.000000,0.000000,0.000000,0.000000
TX_B5072428_A,0.223474,-0.024783,0.000000,0.000000,0.000000,0.000000
TX_B5075162_A,0.223479,-0.024811,0.000000,0.000000,0.000000,0.000000
TX_688874H_A,0.223310,-0.024977,0.000000,0.000000,0.000000,0.000000
TX_B5075978_A,0.223482,-0.024869,0.000000,0.000000,0.000000,0.000000
TX_1385964E_A,0.222714,-0.025589,0.000000,0.000000,0.000000,0.000000
TX_1385964E_B,0.000000,0.000000,-0.133300,-0.179780,0.000000,0.000000
TX_1385964E_C,0.000000,0.000000,0.000000,0.000000,-0.088352,0.203020
TX_1679857E_A,0.222724,-0.025871,0.000000,0.000000,0.000000,0.000000
TX_1679857E_B,0.000000,0.000000,-0.133326,-0.179845,0.000000,0.000000
TX_1679857E_C,0.000000,0.000000,0.000000,0.000000,-0.088355,0.203447
TX_1088550E_A,0.222629,-0.024644,0.000000,0.000000,0.000000,0.000000
TX_1063737E_A,0.222587,-0.024607,0.000000,0.000000,0.000000,0.000000
TX_1469081E_A,0.223133,-0.025312,0.000000,0.000000,0.000000,0.000000
TX_1252667E_A,0.222639,-0.024652,0.000000,0.000000,0.000000,0.000000
TX_B5075557_A,0.223482,-0.024817,0.000000,0.000000,0.000000,0.000000
TX_1469096E_A,0.223151,-0.025409,0.000000,0.000000,0.000000,0.000000
TX_1642378E_A,0.222696,-0.025590,0.000000,0.000000,0.000000,0.000000
TX_1642378E_B,0.000000,0.000000,-0.133093,-0.179970,0.000000,0.000000
TX_1642378E_C,0.000000,0.000000,0.000000,0.000000,-0.088558,0.203294
TX_1613665E_A,0.222803,-0.025445,0.000000,0.000000,0.000000,0.000000
TX_1469099E_A,0.223146,-0.025322,0.000000,0.000000,0.000000,0.000000
TX_1252675E_A,0.222600,-0.024657,0.000000,0.000000,0.000000,0.000000
TX_B5077402_A,0.222397,-0.025007,0.000000,0.000000,0.000000,0.000000
TX_1135196E_A,0.222555,-0.024858,0.000000,0.000000,0.000000,0.000000
TX_P5300971_A,0.222499,-0.024762,0.000000,0.000000,0.000000,0.000000
TX_P5300971_B,0.000000,0.000000,-0.132773,-0.180465,0.000000,0.000000
TX_P5300971_C,0.000000,0.000000,0.000000,0.000000,-0.088825,0.203008
TX_V5615079_A,0.222451,-0.025630,0.000000,0.000000,0.000000,0.000000
TX_V5615079_B,0.000000,0.000000,-0.132837,-0.180074,0.000000,0.000000
TX_V5615079_C,0.000000,0.000000,0.000000,0.000000,-0.088655,0.203387
TX_688862H_A,0.223317,-0.025004,0.000000,0.000000,0.000000,0.000000
TX_B5076194_A,0.223707,-0.024582,0.000000,0.000000,0.000000,0.000000
TX_B5074942_A,0.223478,-0.024786,0.000000,0.000000,0.000000,0.000000
TX_4667233E_A,0.223158,-0.025332,0.000000,0.000000,0.000000,0.000000
TX_B5072744_A,0.223254,-0.024955,0.000000,0.000000,0.000000,0.000000
TX_4636942E_A,0.222636,-0.024568,0.000000,0.000000,0.000000,0.000000
TX_1135550E_A,0.222270,-0.025683,0.000000,0.000000,0.000000,0.000000
TX_1135550E_B,0.000000,0.000000,-0.132576,-0.180220,0.000000,0.000000
TX_1135550E_C,0.000000,0.000000,0.000000,0.000000,-0.088810,0.203577
TX_B5072813_A,0.222698,-0.025236,0.000000,0.000000,0.000000,0.000000
TX_688872H_A,0.223313,-0.024983,0.000000,0.000000,0.000000,0.000000
TX_B5076622_A,0.223258,-0.024968,0.000000,0.000000,0.000000,0.000000
TX_763337E_A,0.222396,-0.025030,0.000000,0.000000,0.000000,0.000000
TX_P5078461_A,0.222689,-0.025242,0.000000,0.000000,0.000000,0.000000
TX_P5078461_B,0.000000,0.000000,-0.132780,-0.180132,0.000000,0.000000
TX_P5078461_C,0.000000,0.000000,0.000000,0.000000,-0.088853,0.203116
TX_1063725E_A,0.222545,-0.024851,0.000000,0.000000,0.000000,0.000000
TX_1874794E_A,0.222672,-0.025256,0.000000,0.000000,0.000000,0.000000
TX_1874794E_B,0.000000,0.000000,-0.132808,-0.180124,0.000000,0.000000
TX_1874794E_C,0.000000,0.000000,0.000000,0.000000,-0.088813,0.203121
TX_B5075859_A,0.223479,-0.024804,0.000000,0.000000,0.000000,0.000000
TX_1419310E_A,0.223112,-0.025581,0.000000,0.000000,0.000000,0.000000
TX_1419310E_B,0.000000,0.000000,-0.133692,-0.179437,0.000000,0.000000
TX_1419310E_C,0.000000,0.000000,0.000000,0.000000,-0.088216,0.202668
TX_4664399E_A,0.224362,-0.023417,0.000000,0.000000,0.000000,0.000000
TX_4664398E_A,0.224355,-0.023411,0.000000,0.000000,0.000000,0.000000
TX_738143H_A,0.222908,-0.025419,0.000000,0.000000,0.000000,0.000000
TX_B5075638_A,0.223480,-0.024813,0.000000,0.000000,0.000000,0.000000
TX_687846H_A,0.223308,-0.025030,0.000000,0.000000,0.000000,0.000000
TX_B5074940_A,0.223478,-0.024800,0.000000,0.000000,0.000000,0.000000
TX_1135189E_A,0.222509,-0.025014,0.000000,0.000000,0.000000,0.000000
TX_1135189E_B,0.000000,0.000000,-0.132997,-0.180348,0.000000,0.000000
TX_1135189E_C,0.000000,0.000000,0.000000,0.000000,-0.088619,0.203139
TX_1641739E_A,0.224387,-0.024037,0.000000,0.000000,0.000000,0.000000
TX_1641739E_B,0.000000,0.000000,-0.136249,-0.179346,0.000000,0.000000
TX_1641739E_C,0.000000,0.000000,0.000000,0.000000,-0.087244,0.201975
TX_P5073871_A,0.222687,-0.025242,0.000000,0.000000,0.000000,0.000000
TX_P5073871_B,0.000000,0.000000,-0.132781,-0.180132,0.000000,0.000000
TX_P5073871_C,0.000000,0.000000,0.000000,0.000000,-0.088851,0.203115
TX_P5074275_A,0.222680,-0.025233,0.000000,0.000000,0.000000,0.000000
TX_1135187E_A,0.222515,-0.025154,0.000000,0.000000,0.000000,0.000000
TX_1135187E_B,0.000000,0.000000,-0.133121,-0.180283,0.000000,0.000000
TX_1135187E_C,0.000000,0.000000,0.000000,0.000000,-0.088505,0.203211
TX_B5076318_A,0.223706,-0.024582,0.000000,0.000000,0.000000,0.000000
TX_1581599E_A,0.224287,-0.023648,0.000000,0.000000,0.000000,0.000000
TX_1575610E_A,0.224359,-0.023449,0.000000,0.000000,0.000000,0.000000
TX_P5300996_A,0.223145,-0.024988,0.000000,0.000000,0.000000,0.000000
TX_P5300996_B,0.000000,0.000000,-0.134439,-0.179019,0.000000,0.000000
TX_P5300996_C,0.000000,0.000000,0.000000,0.000000,-0.087628,0.201924
TX_738136H_A,0.222903,-0.025334,0.000000,0.000000,0.000000,0.000000
TX_763346E_A,0.222437,-0.024924,0.000000,0.000000,0.000000,0.000000
TX_1575602E_A,0.224353,-0.023404,0.000000,0.000000,0.000000,0.000000
TX_738135H_A,0.222908,-0.025419,0.000000,0.000000,0.000000,0.000000
TX_P5074273_A,0.222684,-0.025236,0.000000,0.000000,0.000000,0.000000
TX_1335237E_A,0.222875,-0.025314,0.000000,0.000000,0.000000,0.000000
TX_736733H_A,0.222874,-0.025494,0.000000,0.000000,0.000000,0.000000
TX_1135185E_A,0.222527,-0.025433,0.000000,0.000000,0.000000,0.000000
TX_1135185E_B,0.000000,0.000000,-0.133370,-0.180153,0.000000,0.000000
TX_1135185E_C,0.000000,0.000000,0.000000,0.000000,-0.088276,0.203356
TX_1575606E_A,0.224355,-0.023405,0.000000,0.000000,0.000000,0.000000
TX_B5075468_A,0.223485,-0.024826,0.000000,0.000000,0.000000,0.000000
TX_P5439147_A,0.222830,-0.023998,0.000000,0.000000,0.000000,0.000000
TX_P5439147_B,0.000000,0.000000,-0.133630,-0.180506,0.000000,0.000000
TX_P5439147_C,0.000000,0.000000,0.000000,0.000000,-0.088281,0.202453
TX_P5422294_A,0.223307,-0.024940,0.000000,0.000000,0.000000,0.000000
TX_P5422294_B,0.000000,0.000000,-0.133754,-0.179675,0.000000,0.000000
TX_P5422294_C,0.000000,0.000000,0.000000,0.000000,-0.088447,0.202404
TX_1088546E_A,0.222630,-0.024645,0.000000,0.000000,0.000000,0.000000
TX_B5075891_A,0.223256,-0.024962,0.000000,0.000000,0.000000,0.000000
TX_1575440E_A,0.223615,-0.025006,0.000000,0.000000,0.000000,0.000000
TX_1575440E_B,0.000000,0.000000,-0.134600,-0.179561,0.000000,0.000000
TX_1575440E_C,0.000000,0.000000,0.000000,0.000000,-0.087924,0.202474
TX_1478403E_A,0.223123,-0.025305,0.000000,0.000000,0.000000,0.000000
TX_B5075556_A,0.223483,-0.024820,0.000000,0.000000,0.000000,0.000000
TX_1469094E_A,0.223127,-0.025308,0.000000,0.000000,0.000000,0.000000
TX_B5076188_A,0.223706,-0.024582,0.000000,0.000000,0.000000,0.000000
TX_688927H_A,0.223310,-0.025109,0.000000,0.000000,0.000000,0.000000
TX_B5072427_A,0.223475,-0.024803,0.000000,0.000000,0.000000,0.000000
TX_1581594E_A,0.224287,-0.023647,0.000000,0.000000,0.000000,0.000000
TX_B5075621_A,0.223481,-0.024815,0.000000,0.000000,0.000000,0.000000
TX_B5076523_A,0.223308,-0.024972,0.000000,0.000000,0.000000,0.000000
TX_1613668E_A,0.222802,-0.025444,0.000000,0.000000,0.000000,0.000000
TX_4667234E_A,0.223145,-0.025321,0.000000,0.000000,0.000000,0.000000
TX_B5075860_A,0.223479,-0.024804,0.000000,0.000000,0.000000,0.000000
TX_B5076264_A,0.223306,-0.025023,0.000000,0.000000,0.000000,0.000000
TX_B5076504_A,0.223307,-0.024972,0.000000,0.000000,0.000000,0.000000
TX_4619878E_A,0.223159,-0.025115,0.000000,0.000000,0.000000,0.000000
TX_1135198E_A,0.222554,-0.024857,0.000000,0.000000,0.000000,0.000000
TX_4667236E_A,0.224370,-0.023546,0.000000,0.000000,0.000000,0.000000
TX_P5074270_A,0.222667,-0.025224,0.000000,0.000000,0.000000,0.000000
TX_1326133E_A,0.223388,-0.024918,0.000000,0.000000,0.000000,0.000000
TX_P5074277_A,0.222686,-0.025299,0.000000,0.000000,0.000000,0.000000
TX_P5076661_A,0.222307,-0.025311,0.000000,0.000000,0.000000,0.000000
TX_P5076661_B,0.000000,0.000000,-0.132323,-0.180337,0.000000,0.000000
TX_P5076661_C,0.000000,0.000000,0.000000,0.000000,-0.089091,0.203326
TX_1088552E_A,0.222632,-0.024565,0.000000,0.000000,0.000000,0.000000
TX_736718H_A,0.222895,-0.025266,0.000000,0.000000,0.000000,0.000000
TX_B5077397_A,0.223476,-0.024861,0.000000,0.000000,0.000000,0.000000
TX_736711H_A,0.222900,-0.025331,0.000000,0.000000,0.000000,0.000000
TX_736734H_A,0.222875,-0.025314,0.000000,0.000000,0.000000,0.000000
TX_B5076266_A,0.223300,-0.024941,0.000000,0.000000,0.000000,0.000000
TX_P5514099_A,0.223313,-0.025054,0.000000,0.000000,0.000000,0.000000
TX_P5514099_B,0.000000,0.000000,-0.133854,-0.179623,0.000000,0.000000
TX_P5514099_C,0.000000,0.000000,0.000000,0.000000,-0.088356,0.202463
TX_716543H_A,0.223307,-0.025101,0.000000,0.000000,0.000000,0.000000
TX_4502726E_A,0.222885,-0.025404,0.000000,0.000000,0.000000,0.000000
TX_1063720E_A,0.222494,-0.025021,0.000000,0.000000,0.000000,0.000000
TX_1063720E_B,0.000000,0.000000,-0.132996,-0.180332,0.000000,0.000000
TX_1063720E_C,0.000000,0.000000,0.000000,0.000000,-0.088606,0.203130
TX_B5075160_A,0.223478,-0.024806,0.000000,0.000000,0.000000,0.000000
TX_1063742E_A,0.222587,-0.024729,0.000000,0.000000,0.000000,0.000000
TX_B5075369_A,0.223482,-0.024815,0.000000,0.000000,0.000000,0.000000
TX_1681002E_A,0.224361,-0.023457,0.000000,0.000000,0.000000,0.000000
TX_B5076503_A,0.223309,-0.025036,0.000000,0.000000,0.000000,0.000000
TX_P5071789_A,0.222831,-0.024031,0.000000,0.000000,0.000000,0.000000
TX_P5071789_B,0.000000,0.000000,-0.133659,-0.180490,0.000000,0.000000
TX_P5071789_C,0.000000,0.000000,0.000000,0.000000,-0.088254,0.202470
TX_687839H_A,0.223313,-0.025120,0.000000,0.000000,0.000000,0.000000
TX_1335226E_A,0.223161,-0.025116,0.000000,0.000000,0.000000,0.000000
TX_2134827E_A,0.222881,-0.025503,0.000000,0.000000,0.000000,0.000000
TX_2134827E_B,0.000000,0.000000,-0.133472,-0.179756,0.000000,0.000000
TX_2134827E_C,0.000000,0.000000,0.000000,0.000000,-0.088343,0.202977
TX_B5076508_A,0.223307,-0.024972,0.000000,0.000000,0.000000,0.000000
TX_1575627E_A,0.222652,-0.025431,0.000000,0.000000,0.000000,0.000000
TX_1575627E_B,0.000000,0.000000,-0.132977,-0.180040,0.000000,0.000000
TX_1575627E_C,0.000000,0.000000,0.000000,0.000000,-0.088639,0.203207
TX_736703H_A,0.222905,-0.025893,0.000000,0.000000,0.000000,0.000000
TX_736703H_B,0.000000,0.000000,-0.133840,-0.179357,0.000000,0.000000
TX_736703H_C,0.000000,0.000000,0.000000,0.000000,-0.087954,0.202823
TX_1511256E_A,0.223143,-0.025279,0.000000,0.000000,0.000000,0.000000
TX_1679853E_A,0.222707,-0.025590,0.000000,0.000000,0.000000,0.000000
TX_1679853E_B,0.000000,0.000000,-0.150024,-0.201246,0.000000,0.000000
TX_1679853E_C,0.000000,0.000000,0.000000,0.000000,-0.088574,0.203299
TX_2061035E_A,0.222901,-0.025271,0.000000,0.000000,0.000000,0.000000
TX_P5075747_A,0.222701,-0.025312,0.000000,0.000000,0.000000,0.000000
TX_P5075747_B,0.000000,0.000000,-0.132832,-0.180102,0.000000,0.000000
TX_P5075747_C,0.000000,0.000000,0.000000,0.000000,-0.088812,0.203156
TX_B5074937_A,0.223479,-0.024788,0.000000,0.000000,0.000000,0.000000
TX_4619880E_A,0.223388,-0.024917,0.000000,0.000000,0.000000,0.000000
TX_1135194E_A,0.222550,-0.024732,0.000000,0.000000,0.000000,0.000000
TX_P5444640_A,0.222701,-0.025312,0.000000,0.000000,0.000000,0.000000
TX_P5444640_B,0.000000,0.000000,-0.132832,-0.180102,0.000000,0.000000
TX_P5444640_C,0.000000,0.000000,0.000000,0.000000,-0.088813,0.203157
TX_1335239E_A,0.222876,-0.025314,0.000000,0.000000,0.000000,0.000000
TX_P5511860_A,0.222688,-0.025219,0.000000,0.000000,0.000000,0.000000
TX_P5511860_B,0.000000,0.000000,-0.132760,-0.180143,0.000000,0.000000
TX_P5511860_C,0.000000,0.000000,0.000000,0.000000,-0.101841,0.249127
TX_1511264E_A,0.223154,-0.025410,0.000000,0.000000,0.000000,0.000000
TX_4472865E_A,0.222993,-0.025213,0.000000,0.000000,0.000000,0.000000
TX_4636932E_A,0.222695,-0.025304,0.000000,0.000000,0.000000,0.000000
...